version 3
run Vegas-0-20250707-22:43:34-4484
attr configname Vegas
attr datetime 20250707-22:43:34
attr datetimef 20250707-224334
attr experiment Vegas
attr inifile omnetpp.ini
attr iterationvars ""
attr iterationvarsd ""
attr iterationvarsf ""
attr measurement ""
attr network TcpVariantsSim.TcpVariants
attr processid 4484
attr repetition 0
attr replication #0
attr resultdir results/Vegas
attr runnumber 0
attr seedset 0
config image-path ../inet4.5/images
config description "TCP Vegas test"
config result-dir results/Vegas
config **.sender.tcp.tcpAlgorithmClass "\"TcpVegas\""
config network TcpVariantsSim.TcpVariants
config sim-time-limit 20s
config record-eventlog false
config **.vector-recording true
config **.scalar-recording true
config output-vector-precision 6
config *.eth[].typename EthernetInterface
config *.eth[].dataRate 100Mbps
config *.eth[].queue.typename DropTailQueue
config *.eth[].queue.frameCapacity 500
config **.sender.numApps 1
config **.sender.app[0].typename TcpSessionApp
config **.sender.app[0].localPort 1000
config **.sender.app[0].connectAddress "\"receiver\""
config **.sender.app[0].connectPort 1000
config **.sender.app[0].tOpen 0s
config **.sender.app[0].tSend 0s
config **.sender.app[0].sendBytes 100MiB
config **.sender.app[0].tClose -1s
config **.receiver.numApps 1
config **.receiver.app[0].typename TcpSinkApp
config **.receiver.app[0].localPort 1000
config **.trafficGen.numApps 1
config **.trafficGen.app[0].typename TcpSessionApp
config **.trafficGen.app[0].localPort 2000
config **.trafficGen.app[0].connectAddress "\"receiver\""
config **.trafficGen.app[0].connectPort 2000
config **.trafficGen.app[0].tOpen 0s
config **.trafficGen.app[0].tSend 0s
config **.trafficGen.app[0].sendBytes 50MiB
config **.trafficGen.app[0].tClose -1s
config **.sender.hasTcp true
config **.sender.tcp.typename Tcp
config **.receiver.hasTcp true
config **.receiver.tcp.typename Tcp
config **.tcp.recordStatistics true
config **.tcp.mss 1460
config **.throughput:vector.record vector
config **.throughput:scalar.record avg
config **.endToEndDelay:vector.record vector
config **.endToEndDelay:scalar.record avg
config **.packetLoss:vector.record vector
config **.packetLoss:scalar.record sum
config **.cwnd:vector.record vector
config **.cwnd:scalar.record avg
config **.rtt:vector.record vector
config **.rtt:scalar.record avg
config **.sender.tcp.sentData:vector.record vector
config **.sender.tcp.rcvdData:vector.record vector
config **.sender.tcp.cwnd:vector.record vector
config **.sender.tcp.rtt:vector.record vector
config **.sender.tcp.packetLoss:vector.record vector
config **.sender.tcp.sentData:scalar.record sum
config **.sender.tcp.rcvdData:scalar.record sum
config **.sender.tcp.cwnd:scalar.record avg
config **.sender.tcp.rtt:scalar.record avg
config **.sender.tcp.packetLoss:scalar.record sum
config **.receiver.tcp.sentData:vector.record vector
config **.receiver.tcp.rcvdData:vector.record vector
config **.receiver.tcp.packetLoss:vector.record vector
config **.receiver.tcp.sentData:scalar.record sum
config **.receiver.tcp.rcvdData:scalar.record sum
config **.receiver.tcp.packetLoss:scalar.record sum

vector 0 TcpVariants.sender.eth[0].queue queueLength:vector ETV
attr autoWarmupFilter false
attr interpolationmode sample-hold
attr recordingmode vector
attr source "warmup(atomic(constant0(packetPushEnded) + count(packetPushStarted) - count(packetPulled) - count(packetRemoved) - count(packetDropped)))"
attr title "queue length"
attr unit pk
vector 1 TcpVariants.sender.eth[0].queue queueBitLength:vector ETV
attr autoWarmupFilter false
attr interpolationmode sample-hold
attr recordingmode vector
attr source "warmup(atomic(constant0(packetPushEnded) + sum(packetLength(packetPushStarted)) - sum(packetLength(packetPulled)) - sum(packetLength(packetRemoved)) - sum(packetLength(packetDropped))))"
attr title "queue bit length"
attr unit b
vector 2 TcpVariants.sender.udp passedUpPk:vector(count) ETV
attr interpolationmode none
attr recordingmode vector(count)
attr source packetSentToUpper
attr title "packets passed up, count"
vector 3 TcpVariants.sender.udp droppedPkWrongPort:vector(count) ETV
attr interpolationmode none
attr recordingmode vector(count)
attr source packetDropReasonIsNoPortFound(packetDropped)
attr title "packets dropped (wrong port), count"
vector 4 TcpVariants.sender.udp droppedPkBadChecksum:vector(count) ETV
attr interpolationmode none
attr recordingmode vector(count)
attr source packetDropReasonIsIncorrectlyReceived(packetDropped)
attr title "packets dropped (checksum error), count"
vector 5 TcpVariants.router.eth[0].queue queueLength:vector ETV
attr autoWarmupFilter false
attr interpolationmode sample-hold
attr recordingmode vector
attr source "warmup(atomic(constant0(packetPushEnded) + count(packetPushStarted) - count(packetPulled) - count(packetRemoved) - count(packetDropped)))"
attr title "queue length"
attr unit pk
vector 6 TcpVariants.router.eth[0].queue queueBitLength:vector ETV
attr autoWarmupFilter false
attr interpolationmode sample-hold
attr recordingmode vector
attr source "warmup(atomic(constant0(packetPushEnded) + sum(packetLength(packetPushStarted)) - sum(packetLength(packetPulled)) - sum(packetLength(packetRemoved)) - sum(packetLength(packetDropped))))"
attr title "queue bit length"
attr unit b
vector 7 TcpVariants.router.eth[1].queue queueLength:vector ETV
attr autoWarmupFilter false
attr interpolationmode sample-hold
attr recordingmode vector
attr source "warmup(atomic(constant0(packetPushEnded) + count(packetPushStarted) - count(packetPulled) - count(packetRemoved) - count(packetDropped)))"
attr title "queue length"
attr unit pk
vector 8 TcpVariants.router.eth[1].queue queueBitLength:vector ETV
attr autoWarmupFilter false
attr interpolationmode sample-hold
attr recordingmode vector
attr source "warmup(atomic(constant0(packetPushEnded) + sum(packetLength(packetPushStarted)) - sum(packetLength(packetPulled)) - sum(packetLength(packetRemoved)) - sum(packetLength(packetDropped))))"
attr title "queue bit length"
attr unit b
vector 9 TcpVariants.router.eth[2].queue queueLength:vector ETV
attr autoWarmupFilter false
attr interpolationmode sample-hold
attr recordingmode vector
attr source "warmup(atomic(constant0(packetPushEnded) + count(packetPushStarted) - count(packetPulled) - count(packetRemoved) - count(packetDropped)))"
attr title "queue length"
attr unit pk
vector 10 TcpVariants.router.eth[2].queue queueBitLength:vector ETV
attr autoWarmupFilter false
attr interpolationmode sample-hold
attr recordingmode vector
attr source "warmup(atomic(constant0(packetPushEnded) + sum(packetLength(packetPushStarted)) - sum(packetLength(packetPulled)) - sum(packetLength(packetRemoved)) - sum(packetLength(packetDropped))))"
attr title "queue bit length"
attr unit b
vector 11 TcpVariants.receiver.eth[0].queue queueLength:vector ETV
attr autoWarmupFilter false
attr interpolationmode sample-hold
attr recordingmode vector
attr source "warmup(atomic(constant0(packetPushEnded) + count(packetPushStarted) - count(packetPulled) - count(packetRemoved) - count(packetDropped)))"
attr title "queue length"
attr unit pk
vector 12 TcpVariants.receiver.eth[0].queue queueBitLength:vector ETV
attr autoWarmupFilter false
attr interpolationmode sample-hold
attr recordingmode vector
attr source "warmup(atomic(constant0(packetPushEnded) + sum(packetLength(packetPushStarted)) - sum(packetLength(packetPulled)) - sum(packetLength(packetRemoved)) - sum(packetLength(packetDropped))))"
attr title "queue bit length"
attr unit b
vector 13 TcpVariants.receiver.udp passedUpPk:vector(count) ETV
attr interpolationmode none
attr recordingmode vector(count)
attr source packetSentToUpper
attr title "packets passed up, count"
vector 14 TcpVariants.receiver.udp droppedPkWrongPort:vector(count) ETV
attr interpolationmode none
attr recordingmode vector(count)
attr source packetDropReasonIsNoPortFound(packetDropped)
attr title "packets dropped (wrong port), count"
vector 15 TcpVariants.receiver.udp droppedPkBadChecksum:vector(count) ETV
attr interpolationmode none
attr recordingmode vector(count)
attr source packetDropReasonIsIncorrectlyReceived(packetDropped)
attr title "packets dropped (checksum error), count"
vector 16 TcpVariants.trafficGen.eth[0].queue queueLength:vector ETV
attr autoWarmupFilter false
attr interpolationmode sample-hold
attr recordingmode vector
attr source "warmup(atomic(constant0(packetPushEnded) + count(packetPushStarted) - count(packetPulled) - count(packetRemoved) - count(packetDropped)))"
attr title "queue length"
attr unit pk
vector 17 TcpVariants.trafficGen.eth[0].queue queueBitLength:vector ETV
attr autoWarmupFilter false
attr interpolationmode sample-hold
attr recordingmode vector
attr source "warmup(atomic(constant0(packetPushEnded) + sum(packetLength(packetPushStarted)) - sum(packetLength(packetPulled)) - sum(packetLength(packetRemoved)) - sum(packetLength(packetDropped))))"
attr title "queue bit length"
attr unit b
vector 18 TcpVariants.trafficGen.udp passedUpPk:vector(count) ETV
attr interpolationmode none
attr recordingmode vector(count)
attr source packetSentToUpper
attr title "packets passed up, count"
vector 19 TcpVariants.trafficGen.udp droppedPkWrongPort:vector(count) ETV
attr interpolationmode none
attr recordingmode vector(count)
attr source packetDropReasonIsNoPortFound(packetDropped)
attr title "packets dropped (wrong port), count"
vector 20 TcpVariants.trafficGen.udp droppedPkBadChecksum:vector(count) ETV
attr interpolationmode none
attr recordingmode vector(count)
attr source packetDropReasonIsIncorrectlyReceived(packetDropped)
attr title "packets dropped (checksum error), count"
vector 21 TcpVariants.sender.tcp.conn-3 tcpRcvQueueBytes:vector ETV
attr interpolationmode sample-hold
attr recordingmode vector
vector 22 TcpVariants.sender.tcp.conn-3 rcvAdv:vector ETV
attr interpolationmode sample-hold
attr recordingmode vector
vector 23 TcpVariants.sender.tcp.conn-3 rcvWnd:vector ETV
attr interpolationmode sample-hold
attr recordingmode vector
vector 24 TcpVariants.sender.tcp.conn-3 sndAck:vector ETV
attr interpolationmode sample-hold
attr recordingmode vector
vector 25 TcpVariants.trafficGen.tcp.conn-4 tcpRcvQueueBytes:vector ETV
attr interpolationmode sample-hold
attr recordingmode vector
vector 26 TcpVariants.trafficGen.tcp.conn-4 rcvAdv:vector ETV
attr interpolationmode sample-hold
attr recordingmode vector
vector 27 TcpVariants.trafficGen.tcp.conn-4 rcvWnd:vector ETV
attr interpolationmode sample-hold
attr recordingmode vector
vector 28 TcpVariants.trafficGen.tcp.conn-4 sndAck:vector ETV
attr interpolationmode sample-hold
attr recordingmode vector
vector 29 TcpVariants.sender.ipv4.arp arpRequestSent:vector(packetBytes) ETV
attr recordingmode vector(packetBytes)
attr source arpRequestSent
attr title "ARP request sent, packetBytes"
vector 30 TcpVariants.trafficGen.ipv4.arp arpRequestSent:vector(packetBytes) ETV
attr recordingmode vector(packetBytes)
attr source arpRequestSent
attr title "ARP request sent, packetBytes"
vector 31 TcpVariants.sender.ethernet encapPk:vector(packetBytes) ETV
attr interpolationmode none
attr recordingmode vector(packetBytes)
attr source encapPk
attr title "packets encapsulated, packetBytes"
vector 32 TcpVariants.trafficGen.ethernet encapPk:vector(packetBytes) ETV
attr interpolationmode none
attr recordingmode vector(packetBytes)
attr source encapPk
attr title "packets encapsulated, packetBytes"
vector 33 TcpVariants.sender.eth[0].queue incomingPacketLengths:vector ETV
attr interpolationmode none
attr recordingmode vector
attr source packetLength(packetPushStarted)
attr title "incoming packet lengths"
attr unit b
vector 34 TcpVariants.sender.eth[0].queue queueingTime:vector ETV
attr interpolationmode none
attr recordingmode vector
attr source queueingTime(packetPulled)
attr title "queueing times"
attr unit s
vector 35 TcpVariants.sender.eth[0].queue outgoingPacketLengths:vector ETV
attr interpolationmode none
attr recordingmode vector
attr source packetLength(packetPulled)
attr title "outgoing packet lengths"
attr unit b
vector 36 TcpVariants.sender.eth[0].mac packetReceivedFromUpper:vector(packetBytes) ETV
attr interpolationmode none
attr recordingmode vector(packetBytes)
attr source packetReceivedFromUpper
attr title "packet bytes from higher layer, packetBytes"
vector 37 TcpVariants.trafficGen.eth[0].queue incomingPacketLengths:vector ETV
attr interpolationmode none
attr recordingmode vector
attr source packetLength(packetPushStarted)
attr title "incoming packet lengths"
attr unit b
vector 38 TcpVariants.trafficGen.eth[0].queue queueingTime:vector ETV
attr interpolationmode none
attr recordingmode vector
attr source queueingTime(packetPulled)
attr title "queueing times"
attr unit s
vector 39 TcpVariants.trafficGen.eth[0].queue outgoingPacketLengths:vector ETV
attr interpolationmode none
attr recordingmode vector
attr source packetLength(packetPulled)
attr title "outgoing packet lengths"
attr unit b
vector 40 TcpVariants.trafficGen.eth[0].mac packetReceivedFromUpper:vector(packetBytes) ETV
attr interpolationmode none
attr recordingmode vector(packetBytes)
attr source packetReceivedFromUpper
attr title "packet bytes from higher layer, packetBytes"
vector 41 TcpVariants.sender.eth[0].mac txPk:vector(packetBytes) ETV
attr interpolationmode none
attr recordingmode vector(packetBytes)
attr source packetSentToLower
attr title "packets transmitted, packetBytes"
vector 42 TcpVariants.trafficGen.eth[0].mac txPk:vector(packetBytes) ETV
attr interpolationmode none
attr recordingmode vector(packetBytes)
attr source packetSentToLower
attr title "packets transmitted, packetBytes"
vector 43 TcpVariants.router.eth[0].mac rxPkOk:vector(packetBytes) ETV
attr interpolationmode none
attr recordingmode vector(packetBytes)
attr source rxPkOk
attr title "packets received OK, packetBytes"
vector 44 TcpVariants.router.eth[0].mac passedUpPk:vector(packetBytes) ETV
attr interpolationmode none
attr recordingmode vector(packetBytes)
attr source packetSentToUpper
attr title "packets passed to higher layer, packetBytes"
vector 45 TcpVariants.router.eth[2].mac rxPkOk:vector(packetBytes) ETV
attr interpolationmode none
attr recordingmode vector(packetBytes)
attr source rxPkOk
attr title "packets received OK, packetBytes"
vector 46 TcpVariants.router.eth[2].mac passedUpPk:vector(packetBytes) ETV
attr interpolationmode none
attr recordingmode vector(packetBytes)
attr source packetSentToUpper
attr title "packets passed to higher layer, packetBytes"
vector 47 TcpVariants.router.ethernet decapPk:vector(packetBytes) ETV
attr interpolationmode none
attr recordingmode vector(packetBytes)
attr source decapPk
attr title "packets decapsulated, packetBytes"
vector 48 TcpVariants.router.ipv4.arp arpReplySent:vector(packetBytes) ETV
attr recordingmode vector(packetBytes)
attr source arpReplySent
attr title "ARP replies sent, packetBytes"
vector 49 TcpVariants.router.ethernet encapPk:vector(packetBytes) ETV
attr interpolationmode none
attr recordingmode vector(packetBytes)
attr source encapPk
attr title "packets encapsulated, packetBytes"
vector 50 TcpVariants.router.eth[0].queue incomingPacketLengths:vector ETV
attr interpolationmode none
attr recordingmode vector
attr source packetLength(packetPushStarted)
attr title "incoming packet lengths"
attr unit b
vector 51 TcpVariants.router.eth[0].queue queueingTime:vector ETV
attr interpolationmode none
attr recordingmode vector
attr source queueingTime(packetPulled)
attr title "queueing times"
attr unit s
vector 52 TcpVariants.router.eth[0].queue outgoingPacketLengths:vector ETV
attr interpolationmode none
attr recordingmode vector
attr source packetLength(packetPulled)
attr title "outgoing packet lengths"
attr unit b
vector 53 TcpVariants.router.eth[0].mac packetReceivedFromUpper:vector(packetBytes) ETV
attr interpolationmode none
attr recordingmode vector(packetBytes)
attr source packetReceivedFromUpper
attr title "packet bytes from higher layer, packetBytes"
vector 54 TcpVariants.router.eth[2].queue incomingPacketLengths:vector ETV
attr interpolationmode none
attr recordingmode vector
attr source packetLength(packetPushStarted)
attr title "incoming packet lengths"
attr unit b
vector 55 TcpVariants.router.eth[2].queue queueingTime:vector ETV
attr interpolationmode none
attr recordingmode vector
attr source queueingTime(packetPulled)
attr title "queueing times"
attr unit s
vector 56 TcpVariants.router.eth[2].queue outgoingPacketLengths:vector ETV
attr interpolationmode none
attr recordingmode vector
attr source packetLength(packetPulled)
attr title "outgoing packet lengths"
attr unit b
vector 57 TcpVariants.router.eth[2].mac packetReceivedFromUpper:vector(packetBytes) ETV
attr interpolationmode none
attr recordingmode vector(packetBytes)
attr source packetReceivedFromUpper
attr title "packet bytes from higher layer, packetBytes"
vector 58 TcpVariants.router.eth[0].mac txPk:vector(packetBytes) ETV
attr interpolationmode none
attr recordingmode vector(packetBytes)
attr source packetSentToLower
attr title "packets transmitted, packetBytes"
vector 59 TcpVariants.router.eth[2].mac txPk:vector(packetBytes) ETV
attr interpolationmode none
attr recordingmode vector(packetBytes)
attr source packetSentToLower
attr title "packets transmitted, packetBytes"
vector 60 TcpVariants.sender.eth[0].mac rxPkOk:vector(packetBytes) ETV
attr interpolationmode none
attr recordingmode vector(packetBytes)
attr source rxPkOk
attr title "packets received OK, packetBytes"
vector 61 TcpVariants.sender.eth[0].mac passedUpPk:vector(packetBytes) ETV
attr interpolationmode none
attr recordingmode vector(packetBytes)
attr source packetSentToUpper
attr title "packets passed to higher layer, packetBytes"
vector 62 TcpVariants.trafficGen.eth[0].mac rxPkOk:vector(packetBytes) ETV
attr interpolationmode none
attr recordingmode vector(packetBytes)
attr source rxPkOk
attr title "packets received OK, packetBytes"
vector 63 TcpVariants.trafficGen.eth[0].mac passedUpPk:vector(packetBytes) ETV
attr interpolationmode none
attr recordingmode vector(packetBytes)
attr source packetSentToUpper
attr title "packets passed to higher layer, packetBytes"
vector 64 TcpVariants.sender.ethernet decapPk:vector(packetBytes) ETV
attr interpolationmode none
attr recordingmode vector(packetBytes)
attr source decapPk
attr title "packets decapsulated, packetBytes"
vector 65 TcpVariants.trafficGen.ethernet decapPk:vector(packetBytes) ETV
attr interpolationmode none
attr recordingmode vector(packetBytes)
attr source decapPk
attr title "packets decapsulated, packetBytes"
vector 66 TcpVariants.router.ipv4.arp arpRequestSent:vector(packetBytes) ETV
attr recordingmode vector(packetBytes)
attr source arpRequestSent
attr title "ARP request sent, packetBytes"
vector 67 TcpVariants.router.eth[1].queue incomingPacketLengths:vector ETV
attr interpolationmode none
attr recordingmode vector
attr source packetLength(packetPushStarted)
attr title "incoming packet lengths"
attr unit b
vector 68 TcpVariants.router.eth[1].queue queueingTime:vector ETV
attr interpolationmode none
attr recordingmode vector
attr source queueingTime(packetPulled)
attr title "queueing times"
attr unit s
vector 69 TcpVariants.router.eth[1].queue outgoingPacketLengths:vector ETV
attr interpolationmode none
attr recordingmode vector
attr source packetLength(packetPulled)
attr title "outgoing packet lengths"
attr unit b
vector 70 TcpVariants.router.eth[1].mac packetReceivedFromUpper:vector(packetBytes) ETV
attr interpolationmode none
attr recordingmode vector(packetBytes)
attr source packetReceivedFromUpper
attr title "packet bytes from higher layer, packetBytes"
vector 71 TcpVariants.router.eth[1].mac txPk:vector(packetBytes) ETV
attr interpolationmode none
attr recordingmode vector(packetBytes)
attr source packetSentToLower
attr title "packets transmitted, packetBytes"
vector 72 TcpVariants.receiver.eth[0].mac rxPkOk:vector(packetBytes) ETV
attr interpolationmode none
attr recordingmode vector(packetBytes)
attr source rxPkOk
attr title "packets received OK, packetBytes"
vector 73 TcpVariants.receiver.eth[0].mac passedUpPk:vector(packetBytes) ETV
attr interpolationmode none
attr recordingmode vector(packetBytes)
attr source packetSentToUpper
attr title "packets passed to higher layer, packetBytes"
vector 74 TcpVariants.receiver.ethernet decapPk:vector(packetBytes) ETV
attr interpolationmode none
attr recordingmode vector(packetBytes)
attr source decapPk
attr title "packets decapsulated, packetBytes"
vector 75 TcpVariants.receiver.ipv4.arp arpReplySent:vector(packetBytes) ETV
attr recordingmode vector(packetBytes)
attr source arpReplySent
attr title "ARP replies sent, packetBytes"
vector 76 TcpVariants.receiver.ethernet encapPk:vector(packetBytes) ETV
attr interpolationmode none
attr recordingmode vector(packetBytes)
attr source encapPk
attr title "packets encapsulated, packetBytes"
vector 77 TcpVariants.receiver.eth[0].queue incomingPacketLengths:vector ETV
attr interpolationmode none
attr recordingmode vector
attr source packetLength(packetPushStarted)
attr title "incoming packet lengths"
attr unit b
vector 78 TcpVariants.receiver.eth[0].queue queueingTime:vector ETV
attr interpolationmode none
attr recordingmode vector
attr source queueingTime(packetPulled)
attr title "queueing times"
attr unit s
vector 79 TcpVariants.receiver.eth[0].queue outgoingPacketLengths:vector ETV
attr interpolationmode none
attr recordingmode vector
attr source packetLength(packetPulled)
attr title "outgoing packet lengths"
attr unit b
vector 80 TcpVariants.receiver.eth[0].mac packetReceivedFromUpper:vector(packetBytes) ETV
attr interpolationmode none
attr recordingmode vector(packetBytes)
attr source packetReceivedFromUpper
attr title "packet bytes from higher layer, packetBytes"
vector 81 TcpVariants.receiver.eth[0].mac txPk:vector(packetBytes) ETV
attr interpolationmode none
attr recordingmode vector(packetBytes)
attr source packetSentToLower
attr title "packets transmitted, packetBytes"
vector 82 TcpVariants.router.eth[1].mac rxPkOk:vector(packetBytes) ETV
attr interpolationmode none
attr recordingmode vector(packetBytes)
attr source rxPkOk
attr title "packets received OK, packetBytes"
vector 83 TcpVariants.router.eth[1].mac passedUpPk:vector(packetBytes) ETV
attr interpolationmode none
attr recordingmode vector(packetBytes)
attr source packetSentToUpper
attr title "packets passed to higher layer, packetBytes"
vector 84 TcpVariants.receiver.tcp.conn-1 rcvSeq:vector ETV
attr interpolationmode sample-hold
attr recordingmode vector
vector 85 TcpVariants.receiver.tcp.conn-1 rcvAck:vector ETV
attr interpolationmode sample-hold
attr recordingmode vector
vector 86 TcpVariants.receiver.tcp.conn-1 tcpRcvPayloadBytes:vector ETV
attr interpolationmode sample-hold
attr recordingmode vector
vector 87 TcpVariants.receiver.tcp.conn-5 rcvAdv:vector ETV
attr interpolationmode sample-hold
attr recordingmode vector
vector 88 TcpVariants.receiver.tcp.conn-5 sndWnd:vector ETV
attr interpolationmode sample-hold
attr recordingmode vector
vector 89 TcpVariants.receiver.tcp.conn-5 tcpRcvQueueBytes:vector ETV
attr interpolationmode sample-hold
attr recordingmode vector
vector 90 TcpVariants.receiver.tcp.conn-5 rcvWnd:vector ETV
attr interpolationmode sample-hold
attr recordingmode vector
vector 91 TcpVariants.receiver.tcp.conn-5 sndAck:vector ETV
attr interpolationmode sample-hold
attr recordingmode vector
vector 92 TcpVariants.sender.tcp.conn-3 rcvSeq:vector ETV
attr interpolationmode sample-hold
attr recordingmode vector
vector 93 TcpVariants.sender.tcp.conn-3 rcvAck:vector ETV
attr interpolationmode sample-hold
attr recordingmode vector
vector 94 TcpVariants.sender.tcp.conn-3 tcpRcvPayloadBytes:vector ETV
attr interpolationmode sample-hold
attr recordingmode vector
vector 95 TcpVariants.sender.tcp.conn-3 sndWnd:vector ETV
attr interpolationmode sample-hold
attr recordingmode vector
vector 96 TcpVariants.sender.app[0] packetSent:vector(packetBytes) ETV
attr interpolationmode none
attr recordingmode vector(packetBytes)
attr source packetSent
attr title "packets sent, packetBytes"
vector 97 TcpVariants.sender.tcp.conn-3 sndNxt:vector ETV
attr interpolationmode sample-hold
attr recordingmode vector
vector 98 TcpVariants.sender.tcp.conn-3 unacked:vector ETV
attr interpolationmode sample-hold
attr recordingmode vector
vector 99 TcpVariants.trafficGen.tcp.conn-4 rcvSeq:vector ETV
attr interpolationmode sample-hold
attr recordingmode vector
vector 100 TcpVariants.trafficGen.tcp.conn-4 rcvAck:vector ETV
attr interpolationmode sample-hold
attr recordingmode vector
vector 101 TcpVariants.trafficGen.tcp.conn-4 tcpRcvPayloadBytes:vector ETV
attr interpolationmode sample-hold
attr recordingmode vector
101	124	0.0800528	0
25	5	0	0
100	124	0.0800528	1
99	124	0.0800528	0
28	5	0	0
26	5	0	20440
27	5	0	20440
vector 102 TcpVariants.receiver.tcp.conn-5 rcvSeq:vector ETV
attr interpolationmode sample-hold
attr recordingmode vector
vector 103 TcpVariants.receiver.tcp.conn-5 rcvAck:vector ETV
attr interpolationmode sample-hold
attr recordingmode vector
vector 104 TcpVariants.receiver.tcp.conn-5 tcpRcvPayloadBytes:vector ETV
attr interpolationmode sample-hold
attr recordingmode vector
vector 105 TcpVariants.receiver.tcp.conn-5 unacked:vector ETV
attr interpolationmode sample-hold
attr recordingmode vector
vector 106 TcpVariants.receiver.tcp.conn-5 dupAcks:vector ETV
attr interpolationmode sample-hold
attr recordingmode vector
vector 107 TcpVariants.receiver.app[0].thread_5 packetReceived:vector(packetBytes) ETV
attr interpolationmode none
attr recordingmode vector(packetBytes)
attr source packetReceived
attr title "packets received, packetBytes"
vector 108 TcpVariants.receiver.app[0].thread_5 endToEndDelay:vector ETV
attr interpolationmode none
attr recordingmode vector
attr source dataAge(packetReceived)
attr title "end-to-end delay"
attr unit s
vector 109 TcpVariants.receiver.app[0] packetReceived:vector(packetBytes) ETV
attr checkSignals false
attr interpolationmode none
attr recordingmode vector(packetBytes)
attr source packetReceived
attr title "packets received, packetBytes"
vector 110 TcpVariants.receiver.app[0] endToEndDelay:vector ETV
attr checkSignals false
attr interpolationmode none
attr recordingmode vector
attr source dataAge(packetReceived)
attr title "end-to-end delay"
attr unit s
vector 111 TcpVariants.receiver.eth[0].queue incomingDataRate:vector ETV
attr interpolationmode linear
attr recordingmode vector
attr source throughput(packetPushStarted)
attr title "incoming datarate"
attr unit bps
vector 112 TcpVariants.receiver.eth[0].queue outgoingDataRate:vector ETV
attr interpolationmode linear
attr recordingmode vector
attr source throughput(packetPulled)
attr title "outgoing datarate"
attr unit bps
vector 113 TcpVariants.router.eth[0].queue incomingDataRate:vector ETV
attr interpolationmode linear
attr recordingmode vector
attr source throughput(packetPushStarted)
attr title "incoming datarate"
attr unit bps
vector 114 TcpVariants.router.eth[0].queue outgoingDataRate:vector ETV
attr interpolationmode linear
attr recordingmode vector
attr source throughput(packetPulled)
attr title "outgoing datarate"
attr unit bps
vector 115 TcpVariants.sender.tcp.conn-3 rtt:vector ETV
attr interpolationmode sample-hold
attr recordingmode vector
vector 116 TcpVariants rtt:vector ETV
attr recordingmode vector
attr title "Round-Trip Time"
attr unit s
vector 117 TcpVariants.sender.tcp.conn-3 srtt:vector ETV
attr interpolationmode sample-hold
attr recordingmode vector
vector 118 TcpVariants.sender.tcp.conn-3 rttvar:vector ETV
attr interpolationmode sample-hold
attr recordingmode vector
vector 119 TcpVariants.sender.tcp.conn-3 rto:vector ETV
attr interpolationmode sample-hold
attr recordingmode vector
vector 120 TcpVariants.sender.tcp.conn-3 dupAcks:vector ETV
attr interpolationmode sample-hold
attr recordingmode vector
vector 121 TcpVariants.sender.eth[0].queue incomingDataRate:vector ETV
attr interpolationmode linear
attr recordingmode vector
attr source throughput(packetPushStarted)
attr title "incoming datarate"
attr unit bps
vector 122 TcpVariants.sender.eth[0].queue outgoingDataRate:vector ETV
attr interpolationmode linear
attr recordingmode vector
attr source throughput(packetPulled)
attr title "outgoing datarate"
attr unit bps
vector 123 TcpVariants.router.eth[1].queue incomingDataRate:vector ETV
attr interpolationmode linear
attr recordingmode vector
attr source throughput(packetPushStarted)
attr title "incoming datarate"
attr unit bps
vector 124 TcpVariants.router.eth[1].queue outgoingDataRate:vector ETV
attr interpolationmode linear
attr recordingmode vector
attr source throughput(packetPulled)
attr title "outgoing datarate"
attr unit bps
vector 125 TcpVariants.sender.tcp.conn-3 cwnd:vector ETV
attr interpolationmode sample-hold
attr recordingmode vector
vector 126 TcpVariants cwnd:vector ETV
attr recordingmode vector
attr title "Congestion Window Size"
attr unit bytes
0	0	0	0
0	0	0	0
0	0	0	0
0	0	0	0
0	0	0	0
0	10	0	0
0	38	0.02001152	0
0	112	0.08004608	0
0	118	0.08004608	1
0	121	0.0800528	0
0	173	0.12030848	0
0	208	0.16056416	0
0	209	0.16056416	1
0	211	0.1606872	0
0	268	0.20081984	0
0	277	0.20094288	0
0	336	0.24107552	0
0	337	0.24107552	1
0	340	0.24119856	0
0	348	0.24119856	1
0	349	0.24119856	2
0	351	0.2413216	1
0	353	0.24144464	0
0	458	0.2813312	0
0	467	0.28145424	0
0	476	0.28157728	0
0	485	0.28170032	0
0	592	0.32158688	0
0	593	0.32158688	1
0	596	0.32170992	0
0	604	0.32170992	1
0	605	0.32170992	2
0	608	0.32183296	1
0	616	0.32183296	2
0	617	0.32183296	3
0	620	0.321956	2
0	628	0.321956	3
0	629	0.321956	4
0	631	0.32207904	3
0	633	0.32220208	2
0	635	0.32232512	1
0	637	0.32244816	0
0	838	0.36184256	0
0	847	0.3619656	0
0	856	0.36208864	0
0	865	0.36221168	0
0	874	0.36233472	0
0	883	0.36245776	0
0	892	0.3625808	0
0	901	0.36270384	0
0	1104	0.40209824	0
0	1105	0.40209824	1
0	1108	0.40222128	0
0	1116	0.40222128	1
0	1117	0.40222128	2
0	1120	0.40234432	1
0	1128	0.40234432	2
0	1129	0.40234432	3
0	1132	0.40246736	2
0	1140	0.40246736	3
0	1141	0.40246736	4
0	1144	0.4025904	3
0	1152	0.4025904	4
0	1153	0.4025904	5
0	1156	0.40271344	4
0	1164	0.40271344	5
0	1165	0.40271344	6
0	1168	0.40283648	5
0	1174	0.40283648	6
0	1177	0.40295952	5
0	1183	0.40295952	6
0	1185	0.40308256	5
0	1187	0.4032056	4
0	1189	0.40332864	3
0	1191	0.40345168	2
0	1193	0.40357472	1
0	1195	0.40369776	0
0	1540	0.44235392	0
0	1549	0.44247696	0
0	1558	0.4426	0
0	1567	0.44272304	0
0	1576	0.44284608	0
0	1585	0.44296912	0
0	1594	0.44309216	0
0	1603	0.4432152	0
0	1612	0.44333824	0
0	1621	0.44346128	0
0	1630	0.44358432	0
0	1639	0.44370736	0
0	1648	0.4438304	0
0	1657	0.44395344	0
0	2002	0.4826096	0
0	2011	0.48273264	0
0	2020	0.48285568	0
0	2029	0.48297872	0
0	2038	0.48310176	0
0	2047	0.4832248	0
0	2056	0.48334784	0
0	2065	0.48347088	0
0	2074	0.48359392	0
0	2083	0.48371696	0
0	2092	0.48384	0
0	2101	0.48396304	0
0	2110	0.48408608	0
0	2119	0.48420912	0
0	2464	0.52286528	0
0	2473	0.52298832	0
0	2482	0.52311136	0
0	2491	0.5232344	0
0	2500	0.52335744	0
0	2509	0.52348048	0
0	2518	0.52360352	0
0	2527	0.52372656	0
0	2536	0.5238496	0
0	2545	0.52397264	0
0	2554	0.52409568	0
0	2563	0.52421872	0
0	2572	0.52434176	0
0	2581	0.5244648	0
1	0	0	0
1	0	0	0
1	0	0	0
1	0	0	0
1	0	0	0
1	10	0	0
1	38	0.02001152	0
1	112	0.08004608	0
1	118	0.08004608	12144
1	121	0.0800528	0
1	173	0.12030848	0
1	208	0.16056416	0
1	209	0.16056416	12144
1	211	0.1606872	0
1	268	0.20081984	0
1	277	0.20094288	0
1	336	0.24107552	0
1	337	0.24107552	12144
1	340	0.24119856	0
1	348	0.24119856	12144
1	349	0.24119856	24288
1	351	0.2413216	12144
1	353	0.24144464	0
1	458	0.2813312	0
1	467	0.28145424	0
1	476	0.28157728	0
1	485	0.28170032	0
1	592	0.32158688	0
1	593	0.32158688	12144
1	596	0.32170992	0
1	604	0.32170992	12144
1	605	0.32170992	24288
1	608	0.32183296	12144
1	616	0.32183296	24288
1	617	0.32183296	36432
1	620	0.321956	24288
1	628	0.321956	36432
1	629	0.321956	48576
1	631	0.32207904	36432
1	633	0.32220208	24288
1	635	0.32232512	12144
1	637	0.32244816	0
1	838	0.36184256	0
1	847	0.3619656	0
1	856	0.36208864	0
1	865	0.36221168	0
1	874	0.36233472	0
1	883	0.36245776	0
1	892	0.3625808	0
1	901	0.36270384	0
1	1104	0.40209824	0
1	1105	0.40209824	12144
1	1108	0.40222128	0
1	1116	0.40222128	12144
1	1117	0.40222128	24288
1	1120	0.40234432	12144
1	1128	0.40234432	24288
1	1129	0.40234432	36432
1	1132	0.40246736	24288
1	1140	0.40246736	36432
1	1141	0.40246736	48576
1	1144	0.4025904	36432
1	1152	0.4025904	48576
1	1153	0.4025904	60720
1	1156	0.40271344	48576
1	1164	0.40271344	60720
1	1165	0.40271344	72864
1	1168	0.40283648	60720
1	1174	0.40283648	72864
1	1177	0.40295952	60720
1	1183	0.40295952	72864
1	1185	0.40308256	60720
1	1187	0.4032056	48576
1	1189	0.40332864	36432
1	1191	0.40345168	24288
1	1193	0.40357472	12144
1	1195	0.40369776	0
1	1540	0.44235392	0
1	1549	0.44247696	0
1	1558	0.4426	0
1	1567	0.44272304	0
1	1576	0.44284608	0
1	1585	0.44296912	0
1	1594	0.44309216	0
1	1603	0.4432152	0
1	1612	0.44333824	0
1	1621	0.44346128	0
1	1630	0.44358432	0
1	1639	0.44370736	0
1	1648	0.4438304	0
1	1657	0.44395344	0
1	2002	0.4826096	0
1	2011	0.48273264	0
1	2020	0.48285568	0
1	2029	0.48297872	0
1	2038	0.48310176	0
1	2047	0.4832248	0
1	2056	0.48334784	0
1	2065	0.48347088	0
1	2074	0.48359392	0
1	2083	0.48371696	0
1	2092	0.48384	0
1	2101	0.48396304	0
1	2110	0.48408608	0
1	2119	0.48420912	0
1	2464	0.52286528	0
1	2473	0.52298832	0
1	2482	0.52311136	0
1	2491	0.5232344	0
1	2500	0.52335744	0
1	2509	0.52348048	0
1	2518	0.52360352	0
1	2527	0.52372656	0
1	2536	0.5238496	0
1	2545	0.52397264	0
1	2554	0.52409568	0
1	2563	0.52421872	0
1	2572	0.52434176	0
1	2581	0.5244648	0
2	0	0	0
3	0	0	0
4	0	0	0
5	0	0	0
5	0	0	0
5	0	0	0
5	0	0	0
5	0	0	0
5	24	0.01000576	0
5	94	0.07004032	0
5	164	0.11030272	0
5	197	0.1505584	0
5	252	0.19081408	0
5	259	0.19093712	0
5	318	0.23106976	0
5	325	0.2311928	0
5	428	0.27132544	0
5	435	0.27144848	0
5	442	0.27157152	0
5	449	0.27169456	0
5	560	0.31158112	0
5	567	0.31170416	0
5	574	0.3118272	0
5	581	0.31195024	0
5	780	0.3518368	0
5	787	0.35195984	0
5	794	0.35208288	0
5	801	0.35220592	0
5	808	0.35232896	0
5	815	0.352452	0
5	822	0.35257504	0
5	829	0.35269808	0
5	1044	0.39209248	0
5	1051	0.39221552	0
5	1058	0.39233856	0
5	1065	0.3924616	0
5	1072	0.39258464	0
5	1079	0.39270768	0
5	1086	0.39283072	0
5	1093	0.39295376	0
5	1440	0.43234816	0
5	1447	0.4324712	0
5	1454	0.43259424	0
5	1461	0.43271728	0
5	1468	0.43284032	0
5	1475	0.43296336	0
5	1482	0.4330864	0
5	1489	0.43320944	0
5	1496	0.43333248	0
5	1503	0.43345552	0
5	1510	0.43357856	0
5	1517	0.4337016	0
5	1524	0.43382464	0
5	1531	0.43394768	0
5	1902	0.47260384	0
5	1909	0.47272688	0
5	1916	0.47284992	0
5	1923	0.47297296	0
5	1930	0.473096	0
5	1937	0.47321904	0
5	1944	0.47334208	0
5	1951	0.47346512	0
5	1958	0.47358816	0
5	1965	0.4737112	0
5	1972	0.47383424	0
5	1979	0.47395728	0
5	1986	0.47408032	0
5	1993	0.47420336	0
5	2364	0.51285952	0
5	2371	0.51298256	0
5	2378	0.5131056	0
5	2385	0.51322864	0
5	2392	0.51335168	0
5	2399	0.51347472	0
5	2406	0.51359776	0
5	2413	0.5137208	0
5	2420	0.51384384	0
5	2427	0.51396688	0
5	2434	0.51408992	0
5	2441	0.51421296	0
5	2448	0.514336	0
5	2455	0.51445904	0
6	0	0	0
6	0	0	0
6	0	0	0
6	0	0	0
6	0	0	0
6	24	0.01000576	0
6	94	0.07004032	0
6	164	0.11030272	0
6	197	0.1505584	0
6	252	0.19081408	0
6	259	0.19093712	0
6	318	0.23106976	0
6	325	0.2311928	0
6	428	0.27132544	0
6	435	0.27144848	0
6	442	0.27157152	0
6	449	0.27169456	0
6	560	0.31158112	0
6	567	0.31170416	0
6	574	0.3118272	0
6	581	0.31195024	0
6	780	0.3518368	0
6	787	0.35195984	0
6	794	0.35208288	0
6	801	0.35220592	0
6	808	0.35232896	0
6	815	0.352452	0
6	822	0.35257504	0
6	829	0.35269808	0
6	1044	0.39209248	0
6	1051	0.39221552	0
6	1058	0.39233856	0
6	1065	0.3924616	0
6	1072	0.39258464	0
6	1079	0.39270768	0
6	1086	0.39283072	0
6	1093	0.39295376	0
6	1440	0.43234816	0
6	1447	0.4324712	0
6	1454	0.43259424	0
6	1461	0.43271728	0
6	1468	0.43284032	0
6	1475	0.43296336	0
6	1482	0.4330864	0
6	1489	0.43320944	0
6	1496	0.43333248	0
6	1503	0.43345552	0
6	1510	0.43357856	0
6	1517	0.4337016	0
6	1524	0.43382464	0
6	1531	0.43394768	0
6	1902	0.47260384	0
6	1909	0.47272688	0
6	1916	0.47284992	0
6	1923	0.47297296	0
6	1930	0.473096	0
6	1937	0.47321904	0
6	1944	0.47334208	0
6	1951	0.47346512	0
6	1958	0.47358816	0
6	1965	0.4737112	0
6	1972	0.47383424	0
6	1979	0.47395728	0
6	1986	0.47408032	0
6	1993	0.47420336	0
6	2364	0.51285952	0
6	2371	0.51298256	0
6	2378	0.5131056	0
6	2385	0.51322864	0
6	2392	0.51335168	0
6	2399	0.51347472	0
6	2406	0.51359776	0
6	2413	0.5137208	0
6	2420	0.51384384	0
6	2427	0.51396688	0
6	2434	0.51408992	0
6	2441	0.51421296	0
6	2448	0.514336	0
6	2455	0.51445904	0
7	0	0	0
7	0	0	0
7	0	0	0
7	0	0	0
7	0	0	0
7	51	0.03001728	0
7	66	0.0500288	0
7	67	0.0500288	1
7	69	0.05003552	0
7	133	0.09005184	0
7	140	0.09017488	0
7	180	0.13043056	0
7	218	0.17068624	0
7	225	0.17080928	0
7	284	0.21094192	0
7	291	0.21106496	0
7	360	0.2511976	0
7	367	0.25132064	0
7	374	0.25144368	0
7	381	0.25156672	0
7	492	0.29145328	0
7	499	0.29157632	0
7	506	0.29169936	0
7	513	0.2918224	0
7	644	0.33170896	0
7	651	0.331832	0
7	658	0.33195504	0
7	665	0.33207808	0
7	672	0.33220112	0
7	679	0.33232416	0
7	686	0.3324472	0
7	693	0.33257024	0
7	908	0.37196464	0
7	915	0.37208768	0
7	922	0.37221072	0
7	929	0.37233376	0
7	936	0.3724568	0
7	943	0.37257984	0
7	950	0.37270288	0
7	957	0.37282592	0
7	1202	0.41222032	0
7	1209	0.41234336	0
7	1216	0.4124664	0
7	1223	0.41258944	0
7	1230	0.41271248	0
7	1237	0.41283552	0
7	1244	0.41295856	0
7	1251	0.4130816	0
7	1258	0.41320464	0
7	1265	0.41332768	0
7	1272	0.41345072	0
7	1279	0.41357376	0
7	1286	0.4136968	0
7	1293	0.41381984	0
7	1664	0.452476	0
7	1671	0.45259904	0
7	1678	0.45272208	0
7	1685	0.45284512	0
7	1692	0.45296816	0
7	1699	0.4530912	0
7	1706	0.45321424	0
7	1713	0.45333728	0
7	1720	0.45346032	0
7	1727	0.45358336	0
7	1734	0.4537064	0
7	1741	0.45382944	0
7	1748	0.45395248	0
7	1755	0.45407552	0
7	2126	0.49273168	0
7	2133	0.49285472	0
7	2140	0.49297776	0
7	2147	0.4931008	0
7	2154	0.49322384	0
7	2161	0.49334688	0
7	2168	0.49346992	0
7	2175	0.49359296	0
7	2182	0.493716	0
7	2189	0.49383904	0
7	2196	0.49396208	0
7	2203	0.49408512	0
7	2210	0.49420816	0
7	2217	0.4943312	0
7	2588	0.53298736	0
7	2595	0.5331104	0
7	2602	0.53323344	0
7	2609	0.53335648	0
7	2616	0.53347952	0
7	2623	0.53360256	0
7	2630	0.5337256	0
7	2637	0.53384864	0
7	2644	0.53397168	0
7	2651	0.53409472	0
7	2658	0.53421776	0
7	2665	0.5343408	0
7	2672	0.53446384	0
7	2679	0.53458688	0
8	0	0	0
8	0	0	0
8	0	0	0
8	0	0	0
8	0	0	0
8	51	0.03001728	0
8	66	0.0500288	0
8	67	0.0500288	496
8	69	0.05003552	0
8	133	0.09005184	0
8	140	0.09017488	0
8	180	0.13043056	0
8	218	0.17068624	0
8	225	0.17080928	0
8	284	0.21094192	0
8	291	0.21106496	0
8	360	0.2511976	0
8	367	0.25132064	0
8	374	0.25144368	0
8	381	0.25156672	0
8	492	0.29145328	0
8	499	0.29157632	0
8	506	0.29169936	0
8	513	0.2918224	0
8	644	0.33170896	0
8	651	0.331832	0
8	658	0.33195504	0
8	665	0.33207808	0
8	672	0.33220112	0
8	679	0.33232416	0
8	686	0.3324472	0
8	693	0.33257024	0
8	908	0.37196464	0
8	915	0.37208768	0
8	922	0.37221072	0
8	929	0.37233376	0
8	936	0.3724568	0
8	943	0.37257984	0
8	950	0.37270288	0
8	957	0.37282592	0
8	1202	0.41222032	0
8	1209	0.41234336	0
8	1216	0.4124664	0
8	1223	0.41258944	0
8	1230	0.41271248	0
8	1237	0.41283552	0
8	1244	0.41295856	0
8	1251	0.4130816	0
8	1258	0.41320464	0
8	1265	0.41332768	0
8	1272	0.41345072	0
8	1279	0.41357376	0
8	1286	0.4136968	0
8	1293	0.41381984	0
8	1664	0.452476	0
8	1671	0.45259904	0
8	1678	0.45272208	0
8	1685	0.45284512	0
8	1692	0.45296816	0
8	1699	0.4530912	0
8	1706	0.45321424	0
8	1713	0.45333728	0
8	1720	0.45346032	0
8	1727	0.45358336	0
8	1734	0.4537064	0
8	1741	0.45382944	0
8	1748	0.45395248	0
8	1755	0.45407552	0
8	2126	0.49273168	0
8	2133	0.49285472	0
8	2140	0.49297776	0
8	2147	0.4931008	0
8	2154	0.49322384	0
8	2161	0.49334688	0
8	2168	0.49346992	0
8	2175	0.49359296	0
8	2182	0.493716	0
8	2189	0.49383904	0
8	2196	0.49396208	0
8	2203	0.49408512	0
8	2210	0.49420816	0
8	2217	0.4943312	0
8	2588	0.53298736	0
8	2595	0.5331104	0
8	2602	0.53323344	0
8	2609	0.53335648	0
8	2616	0.53347952	0
8	2623	0.53360256	0
8	2630	0.5337256	0
8	2637	0.53384864	0
8	2644	0.53397168	0
8	2651	0.53409472	0
8	2658	0.53421776	0
8	2665	0.5343408	0
8	2672	0.53446384	0
8	2679	0.53458688	0
9	0	0	0
9	0	0	0
9	0	0	0
9	0	0	0
9	0	0	0
9	25	0.01000576	0
9	101	0.07004704	0
10	0	0	0
10	0	0	0
10	0	0	0
10	0	0	0
10	0	0	0
10	25	0.01000576	0
10	101	0.07004704	0
11	0	0	0
11	0	0	0
11	0	0	0
11	0	0	0
11	0	0	0
11	58	0.04002304	0
11	78	0.06003456	0
11	87	0.06004128	0
11	157	0.10029696	0
11	190	0.14055264	0
11	235	0.18080832	0
11	245	0.18093136	0
11	301	0.221064	0
11	311	0.22118704	0
11	391	0.26131968	0
11	401	0.26144272	0
11	411	0.26156576	0
11	421	0.2616888	0
11	523	0.30157536	0
11	533	0.3016984	0
11	543	0.30182144	0
11	553	0.30194448	0
11	703	0.34183104	0
11	713	0.34195408	0
11	723	0.34207712	0
11	733	0.34220016	0
11	743	0.3423232	0
11	753	0.34244624	0
11	763	0.34256928	0
11	773	0.34269232	0
11	967	0.38208672	0
11	977	0.38220976	0
11	987	0.3823328	0
11	997	0.38245584	0
11	1007	0.38257888	0
11	1017	0.38270192	0
11	1027	0.38282496	0
11	1037	0.382948	0
11	1303	0.4223424	0
11	1313	0.42246544	0
11	1323	0.42258848	0
11	1333	0.42271152	0
11	1343	0.42283456	0
11	1353	0.4229576	0
11	1363	0.42308064	0
11	1373	0.42320368	0
11	1383	0.42332672	0
11	1393	0.42344976	0
11	1403	0.4235728	0
11	1413	0.42369584	0
11	1423	0.42381888	0
11	1433	0.42394192	0
11	1765	0.46259808	0
11	1775	0.46272112	0
11	1785	0.46284416	0
11	1795	0.4629672	0
11	1805	0.46309024	0
11	1815	0.46321328	0
11	1825	0.46333632	0
11	1835	0.46345936	0
11	1845	0.4635824	0
11	1855	0.46370544	0
11	1865	0.46382848	0
11	1875	0.46395152	0
11	1885	0.46407456	0
11	1895	0.4641976	0
11	2227	0.50285376	0
11	2237	0.5029768	0
11	2247	0.50309984	0
11	2257	0.50322288	0
11	2267	0.50334592	0
11	2277	0.50346896	0
11	2287	0.503592	0
11	2297	0.50371504	0
11	2307	0.50383808	0
11	2317	0.50396112	0
11	2327	0.50408416	0
11	2337	0.5042072	0
11	2347	0.50433024	0
11	2357	0.50445328	0
12	0	0	0
12	0	0	0
12	0	0	0
12	0	0	0
12	0	0	0
12	58	0.04002304	0
12	78	0.06003456	0
12	87	0.06004128	0
12	157	0.10029696	0
12	190	0.14055264	0
12	235	0.18080832	0
12	245	0.18093136	0
12	301	0.221064	0
12	311	0.22118704	0
12	391	0.26131968	0
12	401	0.26144272	0
12	411	0.26156576	0
12	421	0.2616888	0
12	523	0.30157536	0
12	533	0.3016984	0
12	543	0.30182144	0
12	553	0.30194448	0
12	703	0.34183104	0
12	713	0.34195408	0
12	723	0.34207712	0
12	733	0.34220016	0
12	743	0.3423232	0
12	753	0.34244624	0
12	763	0.34256928	0
12	773	0.34269232	0
12	967	0.38208672	0
12	977	0.38220976	0
12	987	0.3823328	0
12	997	0.38245584	0
12	1007	0.38257888	0
12	1017	0.38270192	0
12	1027	0.38282496	0
12	1037	0.382948	0
12	1303	0.4223424	0
12	1313	0.42246544	0
12	1323	0.42258848	0
12	1333	0.42271152	0
12	1343	0.42283456	0
12	1353	0.4229576	0
12	1363	0.42308064	0
12	1373	0.42320368	0
12	1383	0.42332672	0
12	1393	0.42344976	0
12	1403	0.4235728	0
12	1413	0.42369584	0
12	1423	0.42381888	0
12	1433	0.42394192	0
12	1765	0.46259808	0
12	1775	0.46272112	0
12	1785	0.46284416	0
12	1795	0.4629672	0
12	1805	0.46309024	0
12	1815	0.46321328	0
12	1825	0.46333632	0
12	1835	0.46345936	0
12	1845	0.4635824	0
12	1855	0.46370544	0
12	1865	0.46382848	0
12	1875	0.46395152	0
12	1885	0.46407456	0
12	1895	0.4641976	0
12	2227	0.50285376	0
12	2237	0.5029768	0
12	2247	0.50309984	0
12	2257	0.50322288	0
12	2267	0.50334592	0
12	2277	0.50346896	0
12	2287	0.503592	0
12	2297	0.50371504	0
12	2307	0.50383808	0
12	2317	0.50396112	0
12	2327	0.50408416	0
12	2337	0.5042072	0
12	2347	0.50433024	0
12	2357	0.50445328	0
13	0	0	0
14	0	0	0
15	0	0	0
16	0	0	0
16	0	0	0
16	0	0	0
16	0	0	0
16	0	0	0
16	11	0	0
16	39	0.02001152	0
17	0	0	0
17	0	0	0
17	0	0	0
17	0	0	0
17	0	0	0
17	11	0	0
17	39	0.02001152	0
18	0	0	0
19	0	0	0
20	0	0	0
21	4	0	0
21	107	0.08004608	0
21	113	0.08004608	0
21	170	0.12030848	0
21	203	0.16056416	0
21	203	0.16056416	0
21	265	0.20081984	0
21	274	0.20094288	0
21	331	0.24107552	0
21	331	0.24107552	0
21	343	0.24119856	0
21	343	0.24119856	0
21	455	0.2813312	0
21	464	0.28145424	0
21	473	0.28157728	0
21	482	0.28170032	0
21	587	0.32158688	0
21	587	0.32158688	0
21	599	0.32170992	0
21	599	0.32170992	0
21	611	0.32183296	0
21	611	0.32183296	0
21	623	0.321956	0
21	623	0.321956	0
21	835	0.36184256	0
21	844	0.3619656	0
21	853	0.36208864	0
21	862	0.36221168	0
21	871	0.36233472	0
21	880	0.36245776	0
21	889	0.3625808	0
21	898	0.36270384	0
21	1099	0.40209824	0
21	1099	0.40209824	0
21	1111	0.40222128	0
21	1111	0.40222128	0
21	1123	0.40234432	0
21	1123	0.40234432	0
21	1135	0.40246736	0
21	1135	0.40246736	0
21	1147	0.4025904	0
21	1147	0.4025904	0
21	1159	0.40271344	0
21	1159	0.40271344	0
21	1171	0.40283648	0
21	1180	0.40295952	0
21	1537	0.44235392	0
21	1546	0.44247696	0
21	1555	0.4426	0
21	1564	0.44272304	0
21	1573	0.44284608	0
21	1582	0.44296912	0
21	1591	0.44309216	0
21	1600	0.4432152	0
21	1609	0.44333824	0
21	1618	0.44346128	0
21	1627	0.44358432	0
21	1636	0.44370736	0
21	1645	0.4438304	0
21	1654	0.44395344	0
21	1999	0.4826096	0
21	2008	0.48273264	0
21	2017	0.48285568	0
21	2026	0.48297872	0
21	2035	0.48310176	0
21	2044	0.4832248	0
21	2053	0.48334784	0
21	2062	0.48347088	0
21	2071	0.48359392	0
21	2080	0.48371696	0
21	2089	0.48384	0
21	2098	0.48396304	0
21	2107	0.48408608	0
21	2116	0.48420912	0
21	2461	0.52286528	0
21	2470	0.52298832	0
21	2479	0.52311136	0
21	2488	0.5232344	0
21	2497	0.52335744	0
21	2506	0.52348048	0
21	2515	0.52360352	0
21	2524	0.52372656	0
21	2533	0.5238496	0
21	2542	0.52397264	0
21	2551	0.52409568	0
21	2560	0.52421872	0
21	2569	0.52434176	0
21	2578	0.5244648	0
22	4	0	20440
22	107	0.08004608	35449
22	107	0.08004608	35449
22	113	0.08004608	35449
22	170	0.12030848	35449
22	203	0.16056416	35449
22	203	0.16056416	35449
22	265	0.20081984	35449
22	274	0.20094288	35449
22	331	0.24107552	35449
22	331	0.24107552	35449
22	343	0.24119856	35449
22	343	0.24119856	35449
22	455	0.2813312	35449
22	464	0.28145424	35449
22	473	0.28157728	35449
22	482	0.28170032	35449
22	587	0.32158688	35449
22	587	0.32158688	35449
22	599	0.32170992	35449
22	599	0.32170992	35449
22	611	0.32183296	35449
22	611	0.32183296	35449
22	623	0.321956	35449
22	623	0.321956	35449
22	835	0.36184256	35449
22	844	0.3619656	35449
22	853	0.36208864	35449
22	862	0.36221168	35449
22	871	0.36233472	35449
22	880	0.36245776	35449
22	889	0.3625808	35449
22	898	0.36270384	35449
22	1099	0.40209824	35449
22	1099	0.40209824	35449
22	1111	0.40222128	35449
22	1111	0.40222128	35449
22	1123	0.40234432	35449
22	1123	0.40234432	35449
22	1135	0.40246736	35449
22	1135	0.40246736	35449
22	1147	0.4025904	35449
22	1147	0.4025904	35449
22	1159	0.40271344	35449
22	1159	0.40271344	35449
22	1171	0.40283648	35449
22	1180	0.40295952	35449
22	1537	0.44235392	35449
22	1546	0.44247696	35449
22	1555	0.4426	35449
22	1564	0.44272304	35449
22	1573	0.44284608	35449
22	1582	0.44296912	35449
22	1591	0.44309216	35449
22	1600	0.4432152	35449
22	1609	0.44333824	35449
22	1618	0.44346128	35449
22	1627	0.44358432	35449
22	1636	0.44370736	35449
22	1645	0.4438304	35449
22	1654	0.44395344	35449
22	1999	0.4826096	35449
22	2008	0.48273264	35449
22	2017	0.48285568	35449
22	2026	0.48297872	35449
22	2035	0.48310176	35449
22	2044	0.4832248	35449
22	2053	0.48334784	35449
22	2062	0.48347088	35449
22	2071	0.48359392	35449
22	2080	0.48371696	35449
22	2089	0.48384	35449
22	2098	0.48396304	35449
22	2107	0.48408608	35449
22	2116	0.48420912	35449
22	2461	0.52286528	35449
22	2470	0.52298832	35449
22	2479	0.52311136	35449
22	2488	0.5232344	35449
22	2497	0.52335744	35449
22	2506	0.52348048	35449
22	2515	0.52360352	35449
22	2524	0.52372656	35449
22	2533	0.5238496	35449
22	2542	0.52397264	35449
22	2551	0.52409568	35449
22	2560	0.52421872	35449
22	2569	0.52434176	35449
22	2578	0.5244648	35449
23	4	0	20440
23	107	0.08004608	20440
23	113	0.08004608	20440
23	170	0.12030848	20440
23	203	0.16056416	20440
23	203	0.16056416	20440
23	265	0.20081984	20440
23	274	0.20094288	20440
23	331	0.24107552	20440
23	331	0.24107552	20440
23	343	0.24119856	20440
23	343	0.24119856	20440
23	455	0.2813312	20440
23	464	0.28145424	20440
23	473	0.28157728	20440
23	482	0.28170032	20440
23	587	0.32158688	20440
23	587	0.32158688	20440
23	599	0.32170992	20440
23	599	0.32170992	20440
23	611	0.32183296	20440
23	611	0.32183296	20440
23	623	0.321956	20440
23	623	0.321956	20440
23	835	0.36184256	20440
23	844	0.3619656	20440
23	853	0.36208864	20440
23	862	0.36221168	20440
23	871	0.36233472	20440
23	880	0.36245776	20440
23	889	0.3625808	20440
23	898	0.36270384	20440
23	1099	0.40209824	20440
23	1099	0.40209824	20440
23	1111	0.40222128	20440
23	1111	0.40222128	20440
23	1123	0.40234432	20440
23	1123	0.40234432	20440
23	1135	0.40246736	20440
23	1135	0.40246736	20440
23	1147	0.4025904	20440
23	1147	0.4025904	20440
23	1159	0.40271344	20440
23	1159	0.40271344	20440
23	1171	0.40283648	20440
23	1180	0.40295952	20440
23	1537	0.44235392	20440
23	1546	0.44247696	20440
23	1555	0.4426	20440
23	1564	0.44272304	20440
23	1573	0.44284608	20440
23	1582	0.44296912	20440
23	1591	0.44309216	20440
23	1600	0.4432152	20440
23	1609	0.44333824	20440
23	1618	0.44346128	20440
23	1627	0.44358432	20440
23	1636	0.44370736	20440
23	1645	0.4438304	20440
23	1654	0.44395344	20440
23	1999	0.4826096	20440
23	2008	0.48273264	20440
23	2017	0.48285568	20440
23	2026	0.48297872	20440
23	2035	0.48310176	20440
23	2044	0.4832248	20440
23	2053	0.48334784	20440
23	2062	0.48347088	20440
23	2071	0.48359392	20440
23	2080	0.48371696	20440
23	2089	0.48384	20440
23	2098	0.48396304	20440
23	2107	0.48408608	20440
23	2116	0.48420912	20440
23	2461	0.52286528	20440
23	2470	0.52298832	20440
23	2479	0.52311136	20440
23	2488	0.5232344	20440
23	2497	0.52335744	20440
23	2506	0.52348048	20440
23	2515	0.52360352	20440
23	2524	0.52372656	20440
23	2533	0.5238496	20440
23	2542	0.52397264	20440
23	2551	0.52409568	20440
23	2560	0.52421872	20440
23	2569	0.52434176	20440
23	2578	0.5244648	20440
24	4	0	0
24	107	0.08004608	15009
24	113	0.08004608	15009
24	170	0.12030848	15009
24	203	0.16056416	15009
24	203	0.16056416	15009
24	265	0.20081984	15009
24	274	0.20094288	15009
24	331	0.24107552	15009
24	331	0.24107552	15009
24	343	0.24119856	15009
24	343	0.24119856	15009
24	455	0.2813312	15009
24	464	0.28145424	15009
24	473	0.28157728	15009
24	482	0.28170032	15009
24	587	0.32158688	15009
24	587	0.32158688	15009
24	599	0.32170992	15009
24	599	0.32170992	15009
24	611	0.32183296	15009
24	611	0.32183296	15009
24	623	0.321956	15009
24	623	0.321956	15009
24	835	0.36184256	15009
24	844	0.3619656	15009
24	853	0.36208864	15009
24	862	0.36221168	15009
24	871	0.36233472	15009
24	880	0.36245776	15009
24	889	0.3625808	15009
24	898	0.36270384	15009
24	1099	0.40209824	15009
24	1099	0.40209824	15009
24	1111	0.40222128	15009
24	1111	0.40222128	15009
24	1123	0.40234432	15009
24	1123	0.40234432	15009
24	1135	0.40246736	15009
24	1135	0.40246736	15009
24	1147	0.4025904	15009
24	1147	0.4025904	15009
24	1159	0.40271344	15009
24	1159	0.40271344	15009
24	1171	0.40283648	15009
24	1180	0.40295952	15009
24	1537	0.44235392	15009
24	1546	0.44247696	15009
24	1555	0.4426	15009
24	1564	0.44272304	15009
24	1573	0.44284608	15009
24	1582	0.44296912	15009
24	1591	0.44309216	15009
24	1600	0.4432152	15009
24	1609	0.44333824	15009
24	1618	0.44346128	15009
24	1627	0.44358432	15009
24	1636	0.44370736	15009
24	1645	0.4438304	15009
24	1654	0.44395344	15009
24	1999	0.4826096	15009
24	2008	0.48273264	15009
24	2017	0.48285568	15009
24	2026	0.48297872	15009
24	2035	0.48310176	15009
24	2044	0.4832248	15009
24	2053	0.48334784	15009
24	2062	0.48347088	15009
24	2071	0.48359392	15009
24	2080	0.48371696	15009
24	2089	0.48384	15009
24	2098	0.48396304	15009
24	2107	0.48408608	15009
24	2116	0.48420912	15009
24	2461	0.52286528	15009
24	2470	0.52298832	15009
24	2479	0.52311136	15009
24	2488	0.5232344	15009
24	2497	0.52335744	15009
24	2506	0.52348048	15009
24	2515	0.52360352	15009
24	2524	0.52372656	15009
24	2533	0.5238496	15009
24	2542	0.52397264	15009
24	2551	0.52409568	15009
24	2560	0.52421872	15009
24	2569	0.52434176	15009
24	2578	0.5244648	15009
29	6	0	28
30	7	0	28
31	8	0	28
31	36	0.02001152	44
31	110	0.08004608	40
31	117	0.08004608	1500
31	172	0.12030848	1500
31	206	0.16056416	1500
31	207	0.16056416	1500
31	267	0.20081984	1500
31	276	0.20094288	1500
31	334	0.24107552	1500
31	335	0.24107552	1500
31	346	0.24119856	1500
31	347	0.24119856	1500
31	457	0.2813312	1500
31	466	0.28145424	1500
31	475	0.28157728	1500
31	484	0.28170032	1500
31	590	0.32158688	1500
31	591	0.32158688	1500
31	602	0.32170992	1500
31	603	0.32170992	1500
31	614	0.32183296	1500
31	615	0.32183296	1500
31	626	0.321956	1500
31	627	0.321956	1500
31	837	0.36184256	1500
31	846	0.3619656	1500
31	855	0.36208864	1500
31	864	0.36221168	1500
31	873	0.36233472	1500
31	882	0.36245776	1500
31	891	0.3625808	1500
31	900	0.36270384	1500
31	1102	0.40209824	1500
31	1103	0.40209824	1500
31	1114	0.40222128	1500
31	1115	0.40222128	1500
31	1126	0.40234432	1500
31	1127	0.40234432	1500
31	1138	0.40246736	1500
31	1139	0.40246736	1500
31	1150	0.4025904	1500
31	1151	0.4025904	1500
31	1162	0.40271344	1500
31	1163	0.40271344	1500
31	1173	0.40283648	1500
31	1182	0.40295952	1500
31	1539	0.44235392	1500
31	1548	0.44247696	1500
31	1557	0.4426	1500
31	1566	0.44272304	1500
31	1575	0.44284608	1500
31	1584	0.44296912	1500
31	1593	0.44309216	1500
31	1602	0.4432152	1500
31	1611	0.44333824	1500
31	1620	0.44346128	1500
31	1629	0.44358432	1500
31	1638	0.44370736	1500
31	1647	0.4438304	1500
31	1656	0.44395344	1500
31	2001	0.4826096	1500
31	2010	0.48273264	1500
31	2019	0.48285568	1500
31	2028	0.48297872	1500
31	2037	0.48310176	1500
31	2046	0.4832248	1500
31	2055	0.48334784	1500
31	2064	0.48347088	1500
31	2073	0.48359392	1500
31	2082	0.48371696	1500
31	2091	0.48384	1500
31	2100	0.48396304	1500
31	2109	0.48408608	1500
31	2118	0.48420912	1500
31	2463	0.52286528	1500
31	2472	0.52298832	1500
31	2481	0.52311136	1500
31	2490	0.5232344	1500
31	2499	0.52335744	1500
31	2508	0.52348048	1500
31	2517	0.52360352	1500
31	2526	0.52372656	1500
31	2535	0.5238496	1500
31	2544	0.52397264	1500
31	2553	0.52409568	1500
31	2562	0.52421872	1500
31	2571	0.52434176	1500
31	2580	0.5244648	1500
32	9	0	28
32	37	0.02001152	44
33	10	0	368
33	38	0.02001152	496
33	112	0.08004608	464
33	118	0.08004608	12144
33	173	0.12030848	12144
33	208	0.16056416	12144
33	209	0.16056416	12144
33	268	0.20081984	12144
33	277	0.20094288	12144
33	336	0.24107552	12144
33	337	0.24107552	12144
33	348	0.24119856	12144
33	349	0.24119856	12144
33	458	0.2813312	12144
33	467	0.28145424	12144
33	476	0.28157728	12144
33	485	0.28170032	12144
33	592	0.32158688	12144
33	593	0.32158688	12144
33	604	0.32170992	12144
33	605	0.32170992	12144
33	616	0.32183296	12144
33	617	0.32183296	12144
33	628	0.321956	12144
33	629	0.321956	12144
33	838	0.36184256	12144
33	847	0.3619656	12144
33	856	0.36208864	12144
33	865	0.36221168	12144
33	874	0.36233472	12144
33	883	0.36245776	12144
33	892	0.3625808	12144
33	901	0.36270384	12144
33	1104	0.40209824	12144
33	1105	0.40209824	12144
33	1116	0.40222128	12144
33	1117	0.40222128	12144
33	1128	0.40234432	12144
33	1129	0.40234432	12144
33	1140	0.40246736	12144
33	1141	0.40246736	12144
33	1152	0.4025904	12144
33	1153	0.4025904	12144
33	1164	0.40271344	12144
33	1165	0.40271344	12144
33	1174	0.40283648	12144
33	1183	0.40295952	12144
33	1540	0.44235392	12144
33	1549	0.44247696	12144
33	1558	0.4426	12144
33	1567	0.44272304	12144
33	1576	0.44284608	12144
33	1585	0.44296912	12144
33	1594	0.44309216	12144
33	1603	0.4432152	12144
33	1612	0.44333824	12144
33	1621	0.44346128	12144
33	1630	0.44358432	12144
33	1639	0.44370736	12144
33	1648	0.4438304	12144
33	1657	0.44395344	12144
33	2002	0.4826096	12144
33	2011	0.48273264	12144
33	2020	0.48285568	12144
33	2029	0.48297872	12144
33	2038	0.48310176	12144
33	2047	0.4832248	12144
33	2056	0.48334784	12144
33	2065	0.48347088	12144
33	2074	0.48359392	12144
33	2083	0.48371696	12144
33	2092	0.48384	12144
33	2101	0.48396304	12144
33	2110	0.48408608	12144
33	2119	0.48420912	12144
33	2464	0.52286528	12144
33	2473	0.52298832	12144
33	2482	0.52311136	12144
33	2491	0.5232344	12144
33	2500	0.52335744	12144
33	2509	0.52348048	12144
33	2518	0.52360352	12144
33	2527	0.52372656	12144
33	2536	0.5238496	12144
33	2545	0.52397264	12144
33	2554	0.52409568	12144
33	2563	0.52421872	12144
33	2572	0.52434176	12144
33	2581	0.5244648	12144
34	10	0	0
34	38	0.02001152	0
34	112	0.08004608	0
34	121	0.0800528	6.72e-06
34	173	0.12030848	0
34	208	0.16056416	0
34	211	0.1606872	0.00012304
34	268	0.20081984	0
34	277	0.20094288	0
34	336	0.24107552	0
34	340	0.24119856	0.00012304
34	351	0.2413216	0.00012304
34	353	0.24144464	0.00024608
34	458	0.2813312	0
34	467	0.28145424	0
34	476	0.28157728	0
34	485	0.28170032	0
34	592	0.32158688	0
34	596	0.32170992	0.00012304
34	608	0.32183296	0.00012304
34	620	0.321956	0.00024608
34	631	0.32207904	0.00024608
34	633	0.32220208	0.00036912
34	635	0.32232512	0.00036912
34	637	0.32244816	0.00049216
34	838	0.36184256	0
34	847	0.3619656	0
34	856	0.36208864	0
34	865	0.36221168	0
34	874	0.36233472	0
34	883	0.36245776	0
34	892	0.3625808	0
34	901	0.36270384	0
34	1104	0.40209824	0
34	1108	0.40222128	0.00012304
34	1120	0.40234432	0.00012304
34	1132	0.40246736	0.00024608
34	1144	0.4025904	0.00024608
34	1156	0.40271344	0.00036912
34	1168	0.40283648	0.00036912
34	1177	0.40295952	0.00049216
34	1185	0.40308256	0.00049216
34	1187	0.4032056	0.0006152
34	1189	0.40332864	0.0006152
34	1191	0.40345168	0.00073824
34	1193	0.40357472	0.00073824
34	1195	0.40369776	0.00073824
34	1540	0.44235392	0
34	1549	0.44247696	0
34	1558	0.4426	0
34	1567	0.44272304	0
34	1576	0.44284608	0
34	1585	0.44296912	0
34	1594	0.44309216	0
34	1603	0.4432152	0
34	1612	0.44333824	0
34	1621	0.44346128	0
34	1630	0.44358432	0
34	1639	0.44370736	0
34	1648	0.4438304	0
34	1657	0.44395344	0
34	2002	0.4826096	0
34	2011	0.48273264	0
34	2020	0.48285568	0
34	2029	0.48297872	0
34	2038	0.48310176	0
34	2047	0.4832248	0
34	2056	0.48334784	0
34	2065	0.48347088	0
34	2074	0.48359392	0
34	2083	0.48371696	0
34	2092	0.48384	0
34	2101	0.48396304	0
34	2110	0.48408608	0
34	2119	0.48420912	0
34	2464	0.52286528	0
34	2473	0.52298832	0
34	2482	0.52311136	0
34	2491	0.5232344	0
34	2500	0.52335744	0
34	2509	0.52348048	0
34	2518	0.52360352	0
34	2527	0.52372656	0
34	2536	0.5238496	0
34	2545	0.52397264	0
34	2554	0.52409568	0
34	2563	0.52421872	0
34	2572	0.52434176	0
34	2581	0.5244648	0
35	10	0	368
35	38	0.02001152	496
35	112	0.08004608	464
35	121	0.0800528	12144
35	173	0.12030848	12144
35	208	0.16056416	12144
35	211	0.1606872	12144
35	268	0.20081984	12144
35	277	0.20094288	12144
35	336	0.24107552	12144
35	340	0.24119856	12144
35	351	0.2413216	12144
35	353	0.24144464	12144
35	458	0.2813312	12144
35	467	0.28145424	12144
35	476	0.28157728	12144
35	485	0.28170032	12144
35	592	0.32158688	12144
35	596	0.32170992	12144
35	608	0.32183296	12144
35	620	0.321956	12144
35	631	0.32207904	12144
35	633	0.32220208	12144
35	635	0.32232512	12144
35	637	0.32244816	12144
35	838	0.36184256	12144
35	847	0.3619656	12144
35	856	0.36208864	12144
35	865	0.36221168	12144
35	874	0.36233472	12144
35	883	0.36245776	12144
35	892	0.3625808	12144
35	901	0.36270384	12144
35	1104	0.40209824	12144
35	1108	0.40222128	12144
35	1120	0.40234432	12144
35	1132	0.40246736	12144
35	1144	0.4025904	12144
35	1156	0.40271344	12144
35	1168	0.40283648	12144
35	1177	0.40295952	12144
35	1185	0.40308256	12144
35	1187	0.4032056	12144
35	1189	0.40332864	12144
35	1191	0.40345168	12144
35	1193	0.40357472	12144
35	1195	0.40369776	12144
35	1540	0.44235392	12144
35	1549	0.44247696	12144
35	1558	0.4426	12144
35	1567	0.44272304	12144
35	1576	0.44284608	12144
35	1585	0.44296912	12144
35	1594	0.44309216	12144
35	1603	0.4432152	12144
35	1612	0.44333824	12144
35	1621	0.44346128	12144
35	1630	0.44358432	12144
35	1639	0.44370736	12144
35	1648	0.4438304	12144
35	1657	0.44395344	12144
35	2002	0.4826096	12144
35	2011	0.48273264	12144
35	2020	0.48285568	12144
35	2029	0.48297872	12144
35	2038	0.48310176	12144
35	2047	0.4832248	12144
35	2056	0.48334784	12144
35	2065	0.48347088	12144
35	2074	0.48359392	12144
35	2083	0.48371696	12144
35	2092	0.48384	12144
35	2101	0.48396304	12144
35	2110	0.48408608	12144
35	2119	0.48420912	12144
35	2464	0.52286528	12144
35	2473	0.52298832	12144
35	2482	0.52311136	12144
35	2491	0.5232344	12144
35	2500	0.52335744	12144
35	2509	0.52348048	12144
35	2518	0.52360352	12144
35	2527	0.52372656	12144
35	2536	0.5238496	12144
35	2545	0.52397264	12144
35	2554	0.52409568	12144
35	2563	0.52421872	12144
35	2572	0.52434176	12144
35	2581	0.5244648	12144
36	10	0	46
36	38	0.02001152	62
36	112	0.08004608	58
36	121	0.0800528	1518
36	173	0.12030848	1518
36	208	0.16056416	1518
36	211	0.1606872	1518
36	268	0.20081984	1518
36	277	0.20094288	1518
36	336	0.24107552	1518
36	340	0.24119856	1518
36	351	0.2413216	1518
36	353	0.24144464	1518
36	458	0.2813312	1518
36	467	0.28145424	1518
36	476	0.28157728	1518
36	485	0.28170032	1518
36	592	0.32158688	1518
36	596	0.32170992	1518
36	608	0.32183296	1518
36	620	0.321956	1518
36	631	0.32207904	1518
36	633	0.32220208	1518
36	635	0.32232512	1518
36	637	0.32244816	1518
36	838	0.36184256	1518
36	847	0.3619656	1518
36	856	0.36208864	1518
36	865	0.36221168	1518
36	874	0.36233472	1518
36	883	0.36245776	1518
36	892	0.3625808	1518
36	901	0.36270384	1518
36	1104	0.40209824	1518
36	1108	0.40222128	1518
36	1120	0.40234432	1518
36	1132	0.40246736	1518
36	1144	0.4025904	1518
36	1156	0.40271344	1518
36	1168	0.40283648	1518
36	1177	0.40295952	1518
36	1185	0.40308256	1518
36	1187	0.4032056	1518
36	1189	0.40332864	1518
36	1191	0.40345168	1518
36	1193	0.40357472	1518
36	1195	0.40369776	1518
36	1540	0.44235392	1518
36	1549	0.44247696	1518
36	1558	0.4426	1518
36	1567	0.44272304	1518
36	1576	0.44284608	1518
36	1585	0.44296912	1518
36	1594	0.44309216	1518
36	1603	0.4432152	1518
36	1612	0.44333824	1518
36	1621	0.44346128	1518
36	1630	0.44358432	1518
36	1639	0.44370736	1518
36	1648	0.4438304	1518
36	1657	0.44395344	1518
36	2002	0.4826096	1518
36	2011	0.48273264	1518
36	2020	0.48285568	1518
36	2029	0.48297872	1518
36	2038	0.48310176	1518
36	2047	0.4832248	1518
36	2056	0.48334784	1518
36	2065	0.48347088	1518
36	2074	0.48359392	1518
36	2083	0.48371696	1518
36	2092	0.48384	1518
36	2101	0.48396304	1518
36	2110	0.48408608	1518
36	2119	0.48420912	1518
36	2464	0.52286528	1518
36	2473	0.52298832	1518
36	2482	0.52311136	1518
36	2491	0.5232344	1518
36	2500	0.52335744	1518
36	2509	0.52348048	1518
36	2518	0.52360352	1518
36	2527	0.52372656	1518
36	2536	0.5238496	1518
36	2545	0.52397264	1518
36	2554	0.52409568	1518
36	2563	0.52421872	1518
36	2572	0.52434176	1518
36	2581	0.5244648	1518
37	11	0	368
37	39	0.02001152	496
38	11	0	0
38	39	0.02001152	0
39	11	0	368
39	39	0.02001152	496
40	11	0	46
40	39	0.02001152	62
41	12	0.00000576	64
41	40	0.02001728	64
41	119	0.08005184	64
41	127	0.08017488	1518
41	174	0.12043056	1518
41	210	0.16068624	1518
41	212	0.16080928	1518
41	269	0.20094192	1518
41	278	0.20106496	1518
41	338	0.2411976	1518
41	350	0.24132064	1518
41	352	0.24144368	1518
41	354	0.24156672	1518
41	459	0.28145328	1518
41	468	0.28157632	1518
41	477	0.28169936	1518
41	486	0.2818224	1518
41	594	0.32170896	1518
41	606	0.321832	1518
41	618	0.32195504	1518
41	630	0.32207808	1518
41	632	0.32220112	1518
41	634	0.32232416	1518
41	636	0.3224472	1518
41	638	0.32257024	1518
41	839	0.36196464	1518
41	848	0.36208768	1518
41	857	0.36221072	1518
41	866	0.36233376	1518
41	875	0.3624568	1518
41	884	0.36257984	1518
41	893	0.36270288	1518
41	902	0.36282592	1518
41	1106	0.40222032	1518
41	1118	0.40234336	1518
41	1130	0.4024664	1518
41	1142	0.40258944	1518
41	1154	0.40271248	1518
41	1166	0.40283552	1518
41	1175	0.40295856	1518
41	1184	0.4030816	1518
41	1186	0.40320464	1518
41	1188	0.40332768	1518
41	1190	0.40345072	1518
41	1192	0.40357376	1518
41	1194	0.4036968	1518
41	1196	0.40381984	1518
41	1541	0.442476	1518
41	1550	0.44259904	1518
41	1559	0.44272208	1518
41	1568	0.44284512	1518
41	1577	0.44296816	1518
41	1586	0.4430912	1518
41	1595	0.44321424	1518
41	1604	0.44333728	1518
41	1613	0.44346032	1518
41	1622	0.44358336	1518
41	1631	0.4437064	1518
41	1640	0.44382944	1518
41	1649	0.44395248	1518
41	1658	0.44407552	1518
41	2003	0.48273168	1518
41	2012	0.48285472	1518
41	2021	0.48297776	1518
41	2030	0.4831008	1518
41	2039	0.48322384	1518
41	2048	0.48334688	1518
41	2057	0.48346992	1518
41	2066	0.48359296	1518
41	2075	0.483716	1518
41	2084	0.48383904	1518
41	2093	0.48396208	1518
41	2102	0.48408512	1518
41	2111	0.48420816	1518
41	2120	0.4843312	1518
41	2465	0.52298736	1518
41	2474	0.5231104	1518
41	2483	0.52323344	1518
41	2492	0.52335648	1518
41	2501	0.52347952	1518
41	2510	0.52360256	1518
41	2519	0.5237256	1518
41	2528	0.52384864	1518
41	2537	0.52397168	1518
41	2546	0.52409472	1518
41	2555	0.52421776	1518
41	2564	0.5243408	1518
41	2573	0.52446384	1518
41	2582	0.52458688	1518
42	13	0.00000576	64
42	41	0.02001728	64
43	16	0.01000576	64
43	44	0.03001728	64
43	129	0.09005184	64
43	136	0.09017488	1518
43	176	0.13043056	1518
43	214	0.17068624	1518
43	220	0.17080928	1518
43	280	0.21094192	1518
43	286	0.21106496	1518
43	356	0.2511976	1518
43	362	0.25132064	1518
43	369	0.25144368	1518
43	376	0.25156672	1518
43	488	0.29145328	1518
43	494	0.29157632	1518
43	501	0.29169936	1518
43	508	0.2918224	1518
43	640	0.33170896	1518
43	646	0.331832	1518
43	653	0.33195504	1518
43	660	0.33207808	1518
43	667	0.33220112	1518
43	674	0.33232416	1518
43	681	0.3324472	1518
43	688	0.33257024	1518
43	904	0.37196464	1518
43	910	0.37208768	1518
43	917	0.37221072	1518
43	924	0.37233376	1518
43	931	0.3724568	1518
43	938	0.37257984	1518
43	945	0.37270288	1518
43	952	0.37282592	1518
43	1198	0.41222032	1518
43	1204	0.41234336	1518
43	1211	0.4124664	1518
43	1218	0.41258944	1518
43	1225	0.41271248	1518
43	1232	0.41283552	1518
43	1239	0.41295856	1518
43	1246	0.4130816	1518
43	1253	0.41320464	1518
43	1260	0.41332768	1518
43	1267	0.41345072	1518
43	1274	0.41357376	1518
43	1281	0.4136968	1518
43	1288	0.41381984	1518
43	1660	0.452476	1518
43	1666	0.45259904	1518
43	1673	0.45272208	1518
43	1680	0.45284512	1518
43	1687	0.45296816	1518
43	1694	0.4530912	1518
43	1701	0.45321424	1518
43	1708	0.45333728	1518
43	1715	0.45346032	1518
43	1722	0.45358336	1518
43	1729	0.4537064	1518
43	1736	0.45382944	1518
43	1743	0.45395248	1518
43	1750	0.45407552	1518
43	2122	0.49273168	1518
43	2128	0.49285472	1518
43	2135	0.49297776	1518
43	2142	0.4931008	1518
43	2149	0.49322384	1518
43	2156	0.49334688	1518
43	2163	0.49346992	1518
43	2170	0.49359296	1518
43	2177	0.493716	1518
43	2184	0.49383904	1518
43	2191	0.49396208	1518
43	2198	0.49408512	1518
43	2205	0.49420816	1518
43	2212	0.4943312	1518
43	2584	0.53298736	1518
43	2590	0.5331104	1518
43	2597	0.53323344	1518
43	2604	0.53335648	1518
43	2611	0.53347952	1518
43	2618	0.53360256	1518
43	2625	0.5337256	1518
43	2632	0.53384864	1518
43	2639	0.53397168	1518
43	2646	0.53409472	1518
43	2653	0.53421776	1518
43	2660	0.5343408	1518
43	2667	0.53446384	1518
43	2674	0.53458688	1518
44	16	0.01000576	64
44	44	0.03001728	64
44	129	0.09005184	64
44	136	0.09017488	1518
44	176	0.13043056	1518
44	214	0.17068624	1518
44	220	0.17080928	1518
44	280	0.21094192	1518
44	286	0.21106496	1518
44	356	0.2511976	1518
44	362	0.25132064	1518
44	369	0.25144368	1518
44	376	0.25156672	1518
44	488	0.29145328	1518
44	494	0.29157632	1518
44	501	0.29169936	1518
44	508	0.2918224	1518
44	640	0.33170896	1518
44	646	0.331832	1518
44	653	0.33195504	1518
44	660	0.33207808	1518
44	667	0.33220112	1518
44	674	0.33232416	1518
44	681	0.3324472	1518
44	688	0.33257024	1518
44	904	0.37196464	1518
44	910	0.37208768	1518
44	917	0.37221072	1518
44	924	0.37233376	1518
44	931	0.3724568	1518
44	938	0.37257984	1518
44	945	0.37270288	1518
44	952	0.37282592	1518
44	1198	0.41222032	1518
44	1204	0.41234336	1518
44	1211	0.4124664	1518
44	1218	0.41258944	1518
44	1225	0.41271248	1518
44	1232	0.41283552	1518
44	1239	0.41295856	1518
44	1246	0.4130816	1518
44	1253	0.41320464	1518
44	1260	0.41332768	1518
44	1267	0.41345072	1518
44	1274	0.41357376	1518
44	1281	0.4136968	1518
44	1288	0.41381984	1518
44	1660	0.452476	1518
44	1666	0.45259904	1518
44	1673	0.45272208	1518
44	1680	0.45284512	1518
44	1687	0.45296816	1518
44	1694	0.4530912	1518
44	1701	0.45321424	1518
44	1708	0.45333728	1518
44	1715	0.45346032	1518
44	1722	0.45358336	1518
44	1729	0.4537064	1518
44	1736	0.45382944	1518
44	1743	0.45395248	1518
44	1750	0.45407552	1518
44	2122	0.49273168	1518
44	2128	0.49285472	1518
44	2135	0.49297776	1518
44	2142	0.4931008	1518
44	2149	0.49322384	1518
44	2156	0.49334688	1518
44	2163	0.49346992	1518
44	2170	0.49359296	1518
44	2177	0.493716	1518
44	2184	0.49383904	1518
44	2191	0.49396208	1518
44	2198	0.49408512	1518
44	2205	0.49420816	1518
44	2212	0.4943312	1518
44	2584	0.53298736	1518
44	2590	0.5331104	1518
44	2597	0.53323344	1518
44	2604	0.53335648	1518
44	2611	0.53347952	1518
44	2618	0.53360256	1518
44	2625	0.5337256	1518
44	2632	0.53384864	1518
44	2639	0.53397168	1518
44	2646	0.53409472	1518
44	2653	0.53421776	1518
44	2660	0.5343408	1518
44	2667	0.53446384	1518
44	2674	0.53458688	1518
45	17	0.01000576	64
45	45	0.03001728	64
46	17	0.01000576	64
46	45	0.03001728	64
47	18	0.01000576	46
47	19	0.01000576	46
47	46	0.03001728	46
47	47	0.03001728	46
47	62	0.0500288	46
47	91	0.07004032	46
47	98	0.07004704	46
47	130	0.09005184	46
47	137	0.09017488	1500
47	161	0.11030272	46
47	177	0.13043056	1500
47	194	0.1505584	46
47	215	0.17068624	1500
47	222	0.17080928	1500
47	249	0.19081408	46
47	256	0.19093712	46
47	281	0.21094192	1500
47	288	0.21106496	1500
47	315	0.23106976	46
47	322	0.2311928	46
47	357	0.2511976	1500
47	364	0.25132064	1500
47	371	0.25144368	1500
47	378	0.25156672	1500
47	425	0.27132544	46
47	432	0.27144848	46
47	439	0.27157152	46
47	446	0.27169456	46
47	489	0.29145328	1500
47	496	0.29157632	1500
47	503	0.29169936	1500
47	510	0.2918224	1500
47	557	0.31158112	46
47	564	0.31170416	46
47	571	0.3118272	46
47	578	0.31195024	46
47	641	0.33170896	1500
47	648	0.331832	1500
47	655	0.33195504	1500
47	662	0.33207808	1500
47	669	0.33220112	1500
47	676	0.33232416	1500
47	683	0.3324472	1500
47	690	0.33257024	1500
47	777	0.3518368	46
47	784	0.35195984	46
47	791	0.35208288	46
47	798	0.35220592	46
47	805	0.35232896	46
47	812	0.352452	46
47	819	0.35257504	46
47	826	0.35269808	46
47	905	0.37196464	1500
47	912	0.37208768	1500
47	919	0.37221072	1500
47	926	0.37233376	1500
47	933	0.3724568	1500
47	940	0.37257984	1500
47	947	0.37270288	1500
47	954	0.37282592	1500
47	1041	0.39209248	46
47	1048	0.39221552	46
47	1055	0.39233856	46
47	1062	0.3924616	46
47	1069	0.39258464	46
47	1076	0.39270768	46
47	1083	0.39283072	46
47	1090	0.39295376	46
47	1199	0.41222032	1500
47	1206	0.41234336	1500
47	1213	0.4124664	1500
47	1220	0.41258944	1500
47	1227	0.41271248	1500
47	1234	0.41283552	1500
47	1241	0.41295856	1500
47	1248	0.4130816	1500
47	1255	0.41320464	1500
47	1262	0.41332768	1500
47	1269	0.41345072	1500
47	1276	0.41357376	1500
47	1283	0.4136968	1500
47	1290	0.41381984	1500
47	1437	0.43234816	46
47	1444	0.4324712	46
47	1451	0.43259424	46
47	1458	0.43271728	46
47	1465	0.43284032	46
47	1472	0.43296336	46
47	1479	0.4330864	46
47	1486	0.43320944	46
47	1493	0.43333248	46
47	1500	0.43345552	46
47	1507	0.43357856	46
47	1514	0.4337016	46
47	1521	0.43382464	46
47	1528	0.43394768	46
47	1661	0.452476	1500
47	1668	0.45259904	1500
47	1675	0.45272208	1500
47	1682	0.45284512	1500
47	1689	0.45296816	1500
47	1696	0.4530912	1500
47	1703	0.45321424	1500
47	1710	0.45333728	1500
47	1717	0.45346032	1500
47	1724	0.45358336	1500
47	1731	0.4537064	1500
47	1738	0.45382944	1500
47	1745	0.45395248	1500
47	1752	0.45407552	1500
47	1899	0.47260384	46
47	1906	0.47272688	46
47	1913	0.47284992	46
47	1920	0.47297296	46
47	1927	0.473096	46
47	1934	0.47321904	46
47	1941	0.47334208	46
47	1948	0.47346512	46
47	1955	0.47358816	46
47	1962	0.4737112	46
47	1969	0.47383424	46
47	1976	0.47395728	46
47	1983	0.47408032	46
47	1990	0.47420336	46
47	2123	0.49273168	1500
47	2130	0.49285472	1500
47	2137	0.49297776	1500
47	2144	0.4931008	1500
47	2151	0.49322384	1500
47	2158	0.49334688	1500
47	2165	0.49346992	1500
47	2172	0.49359296	1500
47	2179	0.493716	1500
47	2186	0.49383904	1500
47	2193	0.49396208	1500
47	2200	0.49408512	1500
47	2207	0.49420816	1500
47	2214	0.4943312	1500
47	2361	0.51285952	46
47	2368	0.51298256	46
47	2375	0.5131056	46
47	2382	0.51322864	46
47	2389	0.51335168	46
47	2396	0.51347472	46
47	2403	0.51359776	46
47	2410	0.5137208	46
47	2417	0.51384384	46
47	2424	0.51396688	46
47	2431	0.51408992	46
47	2438	0.51421296	46
47	2445	0.514336	46
47	2452	0.51445904	46
47	2585	0.53298736	1500
47	2592	0.5331104	1500
47	2599	0.53323344	1500
47	2606	0.53335648	1500
47	2613	0.53347952	1500
47	2620	0.53360256	1500
47	2627	0.5337256	1500
47	2634	0.53384864	1500
47	2641	0.53397168	1500
47	2648	0.53409472	1500
47	2655	0.53421776	1500
47	2662	0.5343408	1500
47	2669	0.53446384	1500
47	2676	0.53458688	1500
48	20	0.01000576	28
48	21	0.01000576	28
49	22	0.01000576	28
49	23	0.01000576	28
49	50	0.03001728	28
49	64	0.0500288	44
49	65	0.0500288	44
49	93	0.07004032	44
49	100	0.07004704	40
49	132	0.09005184	40
49	139	0.09017488	1500
49	163	0.11030272	40
49	179	0.13043056	1500
49	196	0.1505584	40
49	217	0.17068624	1500
49	224	0.17080928	1500
49	251	0.19081408	40
49	258	0.19093712	40
49	283	0.21094192	1500
49	290	0.21106496	1500
49	317	0.23106976	40
49	324	0.2311928	40
49	359	0.2511976	1500
49	366	0.25132064	1500
49	373	0.25144368	1500
49	380	0.25156672	1500
49	427	0.27132544	40
49	434	0.27144848	40
49	441	0.27157152	40
49	448	0.27169456	40
49	491	0.29145328	1500
49	498	0.29157632	1500
49	505	0.29169936	1500
49	512	0.2918224	1500
49	559	0.31158112	40
49	566	0.31170416	40
49	573	0.3118272	40
49	580	0.31195024	40
49	643	0.33170896	1500
49	650	0.331832	1500
49	657	0.33195504	1500
49	664	0.33207808	1500
49	671	0.33220112	1500
49	678	0.33232416	1500
49	685	0.3324472	1500
49	692	0.33257024	1500
49	779	0.3518368	40
49	786	0.35195984	40
49	793	0.35208288	40
49	800	0.35220592	40
49	807	0.35232896	40
49	814	0.352452	40
49	821	0.35257504	40
49	828	0.35269808	40
49	907	0.37196464	1500
49	914	0.37208768	1500
49	921	0.37221072	1500
49	928	0.37233376	1500
49	935	0.3724568	1500
49	942	0.37257984	1500
49	949	0.37270288	1500
49	956	0.37282592	1500
49	1043	0.39209248	40
49	1050	0.39221552	40
49	1057	0.39233856	40
49	1064	0.3924616	40
49	1071	0.39258464	40
49	1078	0.39270768	40
49	1085	0.39283072	40
49	1092	0.39295376	40
49	1201	0.41222032	1500
49	1208	0.41234336	1500
49	1215	0.4124664	1500
49	1222	0.41258944	1500
49	1229	0.41271248	1500
49	1236	0.41283552	1500
49	1243	0.41295856	1500
49	1250	0.4130816	1500
49	1257	0.41320464	1500
49	1264	0.41332768	1500
49	1271	0.41345072	1500
49	1278	0.41357376	1500
49	1285	0.4136968	1500
49	1292	0.41381984	1500
49	1439	0.43234816	40
49	1446	0.4324712	40
49	1453	0.43259424	40
49	1460	0.43271728	40
49	1467	0.43284032	40
49	1474	0.43296336	40
49	1481	0.4330864	40
49	1488	0.43320944	40
49	1495	0.43333248	40
49	1502	0.43345552	40
49	1509	0.43357856	40
49	1516	0.4337016	40
49	1523	0.43382464	40
49	1530	0.43394768	40
49	1663	0.452476	1500
49	1670	0.45259904	1500
49	1677	0.45272208	1500
49	1684	0.45284512	1500
49	1691	0.45296816	1500
49	1698	0.4530912	1500
49	1705	0.45321424	1500
49	1712	0.45333728	1500
49	1719	0.45346032	1500
49	1726	0.45358336	1500
49	1733	0.4537064	1500
49	1740	0.45382944	1500
49	1747	0.45395248	1500
49	1754	0.45407552	1500
49	1901	0.47260384	40
49	1908	0.47272688	40
49	1915	0.47284992	40
49	1922	0.47297296	40
49	1929	0.473096	40
49	1936	0.47321904	40
49	1943	0.47334208	40
49	1950	0.47346512	40
49	1957	0.47358816	40
49	1964	0.4737112	40
49	1971	0.47383424	40
49	1978	0.47395728	40
49	1985	0.47408032	40
49	1992	0.47420336	40
49	2125	0.49273168	1500
49	2132	0.49285472	1500
49	2139	0.49297776	1500
49	2146	0.4931008	1500
49	2153	0.49322384	1500
49	2160	0.49334688	1500
49	2167	0.49346992	1500
49	2174	0.49359296	1500
49	2181	0.493716	1500
49	2188	0.49383904	1500
49	2195	0.49396208	1500
49	2202	0.49408512	1500
49	2209	0.49420816	1500
49	2216	0.4943312	1500
49	2363	0.51285952	40
49	2370	0.51298256	40
49	2377	0.5131056	40
49	2384	0.51322864	40
49	2391	0.51335168	40
49	2398	0.51347472	40
49	2405	0.51359776	40
49	2412	0.5137208	40
49	2419	0.51384384	40
49	2426	0.51396688	40
49	2433	0.51408992	40
49	2440	0.51421296	40
49	2447	0.514336	40
49	2454	0.51445904	40
49	2587	0.53298736	1500
49	2594	0.5331104	1500
49	2601	0.53323344	1500
49	2608	0.53335648	1500
49	2615	0.53347952	1500
49	2622	0.53360256	1500
49	2629	0.5337256	1500
49	2636	0.53384864	1500
49	2643	0.53397168	1500
49	2650	0.53409472	1500
49	2657	0.53421776	1500
49	2664	0.5343408	1500
49	2671	0.53446384	1500
49	2678	0.53458688	1500
50	24	0.01000576	368
50	94	0.07004032	496
50	164	0.11030272	464
50	197	0.1505584	464
50	252	0.19081408	464
50	259	0.19093712	464
50	318	0.23106976	464
50	325	0.2311928	464
50	428	0.27132544	464
50	435	0.27144848	464
50	442	0.27157152	464
50	449	0.27169456	464
50	560	0.31158112	464
50	567	0.31170416	464
50	574	0.3118272	464
50	581	0.31195024	464
50	780	0.3518368	464
50	787	0.35195984	464
50	794	0.35208288	464
50	801	0.35220592	464
50	808	0.35232896	464
50	815	0.352452	464
50	822	0.35257504	464
50	829	0.35269808	464
50	1044	0.39209248	464
50	1051	0.39221552	464
50	1058	0.39233856	464
50	1065	0.3924616	464
50	1072	0.39258464	464
50	1079	0.39270768	464
50	1086	0.39283072	464
[...]
103	739	0.3423232	15009
103	749	0.34244624	15009
103	759	0.34256928	15009
103	769	0.34269232	15009
103	963	0.38208672	15009
103	973	0.38220976	15009
103	983	0.3823328	15009
103	993	0.38245584	15009
103	1003	0.38257888	15009
103	1013	0.38270192	15009
103	1023	0.38282496	15009
103	1033	0.382948	15009
103	1299	0.4223424	15009
103	1309	0.42246544	15009
103	1319	0.42258848	15009
103	1329	0.42271152	15009
103	1339	0.42283456	15009
103	1349	0.4229576	15009
103	1359	0.42308064	15009
103	1369	0.42320368	15009
103	1379	0.42332672	15009
103	1389	0.42344976	15009
103	1399	0.4235728	15009
103	1409	0.42369584	15009
103	1419	0.42381888	15009
103	1429	0.42394192	15009
103	1761	0.46259808	15009
103	1771	0.46272112	15009
103	1781	0.46284416	15009
103	1791	0.4629672	15009
103	1801	0.46309024	15009
103	1811	0.46321328	15009
103	1821	0.46333632	15009
103	1831	0.46345936	15009
103	1841	0.4635824	15009
103	1851	0.46370544	15009
103	1861	0.46382848	15009
103	1871	0.46395152	15009
103	1881	0.46407456	15009
103	1891	0.4641976	15009
103	2223	0.50285376	15009
103	2233	0.5029768	15009
103	2243	0.50309984	15009
103	2253	0.50322288	15009
103	2263	0.50334592	15009
103	2273	0.50346896	15009
103	2283	0.503592	15009
103	2293	0.50371504	15009
103	2303	0.50383808	15009
103	2313	0.50396112	15009
103	2323	0.50408416	15009
103	2333	0.5042072	15009
103	2343	0.50433024	15009
103	2353	0.50445328	15009
104	146	0.1000576	0
104	153	0.10029696	1460
104	186	0.14055264	1460
104	231	0.18080832	1460
104	241	0.18093136	1460
104	297	0.221064	1460
104	307	0.22118704	1460
104	387	0.26131968	1460
104	397	0.26144272	1460
104	407	0.26156576	1460
104	417	0.2616888	1460
104	519	0.30157536	1460
104	529	0.3016984	1460
104	539	0.30182144	1460
104	549	0.30194448	1460
104	699	0.34183104	1460
104	709	0.34195408	1460
104	719	0.34207712	1460
104	729	0.34220016	1460
104	739	0.3423232	1460
104	749	0.34244624	1460
104	759	0.34256928	1460
104	769	0.34269232	1460
104	963	0.38208672	1460
104	973	0.38220976	1460
104	983	0.3823328	1460
104	993	0.38245584	1460
104	1003	0.38257888	1460
104	1013	0.38270192	1460
104	1023	0.38282496	1460
104	1033	0.382948	1460
104	1299	0.4223424	1460
104	1309	0.42246544	1460
104	1319	0.42258848	1460
104	1329	0.42271152	1460
104	1339	0.42283456	1460
104	1349	0.4229576	1460
104	1359	0.42308064	1460
104	1369	0.42320368	1460
104	1379	0.42332672	1460
104	1389	0.42344976	1460
104	1399	0.4235728	1460
104	1409	0.42369584	1460
104	1419	0.42381888	1460
104	1429	0.42394192	1460
104	1761	0.46259808	1460
104	1771	0.46272112	1460
104	1781	0.46284416	1460
104	1791	0.4629672	1460
104	1801	0.46309024	1460
104	1811	0.46321328	1460
104	1821	0.46333632	1460
104	1831	0.46345936	1460
104	1841	0.4635824	1460
104	1851	0.46370544	1460
104	1861	0.46382848	1460
104	1871	0.46395152	1460
104	1881	0.46407456	1460
104	1891	0.4641976	1460
104	2223	0.50285376	1460
104	2233	0.5029768	1460
104	2243	0.50309984	1460
104	2253	0.50322288	1460
104	2263	0.50334592	1460
104	2273	0.50346896	1460
104	2283	0.503592	1460
104	2293	0.50371504	1460
104	2303	0.50383808	1460
104	2313	0.50396112	1460
104	2323	0.50408416	1460
104	2333	0.5042072	1460
104	2343	0.50433024	1460
104	2353	0.50445328	1460
105	146	0.1000576	0
106	153	0.10029696	0
106	186	0.14055264	0
106	231	0.18080832	0
106	241	0.18093136	0
106	297	0.221064	0
106	307	0.22118704	0
106	387	0.26131968	0
106	397	0.26144272	0
106	407	0.26156576	0
106	417	0.2616888	0
106	519	0.30157536	0
106	529	0.3016984	0
106	539	0.30182144	0
106	549	0.30194448	0
106	699	0.34183104	0
106	709	0.34195408	0
106	719	0.34207712	0
106	729	0.34220016	0
106	739	0.3423232	0
106	749	0.34244624	0
106	759	0.34256928	0
106	769	0.34269232	0
106	963	0.38208672	0
106	973	0.38220976	0
106	983	0.3823328	0
106	993	0.38245584	0
106	1003	0.38257888	0
106	1013	0.38270192	0
106	1023	0.38282496	0
106	1033	0.382948	0
106	1299	0.4223424	0
106	1309	0.42246544	0
106	1319	0.42258848	0
106	1329	0.42271152	0
106	1339	0.42283456	0
106	1349	0.4229576	0
106	1359	0.42308064	0
106	1369	0.42320368	0
106	1379	0.42332672	0
106	1389	0.42344976	0
106	1399	0.4235728	0
106	1409	0.42369584	0
106	1419	0.42381888	0
106	1429	0.42394192	0
106	1761	0.46259808	0
106	1771	0.46272112	0
106	1781	0.46284416	0
106	1791	0.4629672	0
106	1801	0.46309024	0
106	1811	0.46321328	0
106	1821	0.46333632	0
106	1831	0.46345936	0
106	1841	0.4635824	0
106	1851	0.46370544	0
106	1861	0.46382848	0
106	1871	0.46395152	0
106	1881	0.46407456	0
106	1891	0.4641976	0
106	2223	0.50285376	0
106	2233	0.5029768	0
106	2243	0.50309984	0
106	2253	0.50322288	0
106	2263	0.50334592	0
106	2273	0.50346896	0
106	2283	0.503592	0
106	2293	0.50371504	0
106	2303	0.50383808	0
106	2313	0.50396112	0
106	2323	0.50408416	0
106	2333	0.5042072	0
106	2343	0.50433024	0
106	2353	0.50445328	0
107	154	0.10029696	1460
107	187	0.14055264	1460
107	232	0.18080832	1460
107	242	0.18093136	1460
107	298	0.221064	1460
107	308	0.22118704	1460
107	388	0.26131968	1460
107	398	0.26144272	1460
107	408	0.26156576	1460
107	418	0.2616888	1460
107	520	0.30157536	1460
107	530	0.3016984	1460
107	540	0.30182144	1460
107	550	0.30194448	1460
107	700	0.34183104	1460
107	710	0.34195408	1460
107	720	0.34207712	1460
107	730	0.34220016	1460
107	740	0.3423232	1460
107	750	0.34244624	1460
107	760	0.34256928	1460
107	770	0.34269232	1460
107	964	0.38208672	1460
107	974	0.38220976	1460
107	984	0.3823328	1460
107	994	0.38245584	1460
107	1004	0.38257888	1460
107	1014	0.38270192	1460
107	1024	0.38282496	1460
107	1034	0.382948	1460
107	1300	0.4223424	1460
107	1310	0.42246544	1460
107	1320	0.42258848	1460
107	1330	0.42271152	1460
107	1340	0.42283456	1460
107	1350	0.4229576	1460
107	1360	0.42308064	1460
107	1370	0.42320368	1460
107	1380	0.42332672	1460
107	1390	0.42344976	1460
107	1400	0.4235728	1460
107	1410	0.42369584	1460
107	1420	0.42381888	1460
107	1430	0.42394192	1460
107	1762	0.46259808	1460
107	1772	0.46272112	1460
107	1782	0.46284416	1460
107	1792	0.4629672	1460
107	1802	0.46309024	1460
107	1812	0.46321328	1460
107	1822	0.46333632	1460
107	1832	0.46345936	1460
107	1842	0.4635824	1460
107	1852	0.46370544	1460
107	1862	0.46382848	1460
107	1872	0.46395152	1460
107	1882	0.46407456	1460
107	1892	0.4641976	1460
107	2224	0.50285376	1460
107	2234	0.5029768	1460
107	2244	0.50309984	1460
107	2254	0.50322288	1460
107	2264	0.50334592	1460
107	2274	0.50346896	1460
107	2284	0.503592	1460
107	2294	0.50371504	1460
107	2304	0.50383808	1460
107	2314	0.50396112	1460
107	2324	0.50408416	1460
107	2334	0.5042072	1460
107	2344	0.50433024	1460
107	2354	0.50445328	1460
108	154	0.10029696	0.0202509
108	187	0.14055264	0.0605066
108	232	0.18080832	0.100762
108	242	0.18093136	0.100885
108	298	0.221064	0.141018
108	308	0.22118704	0.141141
108	388	0.26131968	0.181274
108	398	0.26144272	0.181397
108	408	0.26156576	0.18152
108	418	0.2616888	0.181643
108	520	0.30157536	0.221529
108	530	0.3016984	0.221652
108	540	0.30182144	0.221775
108	550	0.30194448	0.221898
108	700	0.34183104	0.261785
108	710	0.34195408	0.261908
108	720	0.34207712	0.262031
108	730	0.34220016	0.262154
108	740	0.3423232	0.262277
108	750	0.34244624	0.2624
108	760	0.34256928	0.262523
108	770	0.34269232	0.262646
108	964	0.38208672	0.302041
108	974	0.38220976	0.302164
108	984	0.3823328	0.302287
108	994	0.38245584	0.30241
108	1004	0.38257888	0.302533
108	1014	0.38270192	0.302656
108	1024	0.38282496	0.302779
108	1034	0.382948	0.302902
108	1300	0.4223424	0.342296
108	1310	0.42246544	0.342419
108	1320	0.42258848	0.342542
108	1330	0.42271152	0.342665
108	1340	0.42283456	0.342788
108	1350	0.4229576	0.342912
108	1360	0.42308064	0.343035
108	1370	0.42320368	0.343158
108	1380	0.42332672	0.343281
108	1390	0.42344976	0.343404
108	1400	0.4235728	0.343527
108	1410	0.42369584	0.34365
108	1420	0.42381888	0.343773
108	1430	0.42394192	0.343896
108	1762	0.46259808	0.382552
108	1772	0.46272112	0.382675
108	1782	0.46284416	0.382798
108	1792	0.4629672	0.382921
108	1802	0.46309024	0.383044
108	1812	0.46321328	0.383167
108	1822	0.46333632	0.38329
108	1832	0.46345936	0.383413
108	1842	0.4635824	0.383536
108	1852	0.46370544	0.383659
108	1862	0.46382848	0.383782
108	1872	0.46395152	0.383905
108	1882	0.46407456	0.384028
108	1892	0.4641976	0.384152
108	2224	0.50285376	0.422808
108	2234	0.5029768	0.422931
108	2244	0.50309984	0.423054
108	2254	0.50322288	0.423177
108	2264	0.50334592	0.4233
108	2274	0.50346896	0.423423
108	2284	0.503592	0.423546
108	2294	0.50371504	0.423669
108	2304	0.50383808	0.423792
108	2314	0.50396112	0.423915
108	2324	0.50408416	0.424038
108	2334	0.5042072	0.424161
108	2344	0.50433024	0.424284
108	2354	0.50445328	0.424407
109	154	0.10029696	1460
109	187	0.14055264	1460
109	232	0.18080832	1460
109	242	0.18093136	1460
109	298	0.221064	1460
109	308	0.22118704	1460
109	388	0.26131968	1460
109	398	0.26144272	1460
109	408	0.26156576	1460
109	418	0.2616888	1460
109	520	0.30157536	1460
109	530	0.3016984	1460
109	540	0.30182144	1460
109	550	0.30194448	1460
109	700	0.34183104	1460
109	710	0.34195408	1460
109	720	0.34207712	1460
109	730	0.34220016	1460
109	740	0.3423232	1460
109	750	0.34244624	1460
109	760	0.34256928	1460
109	770	0.34269232	1460
109	964	0.38208672	1460
109	974	0.38220976	1460
109	984	0.3823328	1460
109	994	0.38245584	1460
109	1004	0.38257888	1460
109	1014	0.38270192	1460
109	1024	0.38282496	1460
109	1034	0.382948	1460
109	1300	0.4223424	1460
109	1310	0.42246544	1460
109	1320	0.42258848	1460
109	1330	0.42271152	1460
109	1340	0.42283456	1460
109	1350	0.4229576	1460
109	1360	0.42308064	1460
109	1370	0.42320368	1460
109	1380	0.42332672	1460
109	1390	0.42344976	1460
109	1400	0.4235728	1460
109	1410	0.42369584	1460
109	1420	0.42381888	1460
109	1430	0.42394192	1460
109	1762	0.46259808	1460
109	1772	0.46272112	1460
109	1782	0.46284416	1460
109	1792	0.4629672	1460
109	1802	0.46309024	1460
109	1812	0.46321328	1460
109	1822	0.46333632	1460
109	1832	0.46345936	1460
109	1842	0.4635824	1460
109	1852	0.46370544	1460
109	1862	0.46382848	1460
109	1872	0.46395152	1460
109	1882	0.46407456	1460
109	1892	0.4641976	1460
109	2224	0.50285376	1460
109	2234	0.5029768	1460
109	2244	0.50309984	1460
109	2254	0.50322288	1460
109	2264	0.50334592	1460
109	2274	0.50346896	1460
109	2284	0.503592	1460
109	2294	0.50371504	1460
109	2304	0.50383808	1460
109	2314	0.50396112	1460
109	2324	0.50408416	1460
109	2334	0.5042072	1460
109	2344	0.50433024	1460
109	2354	0.50445328	1460
110	154	0.10029696	0.0202509
110	187	0.14055264	0.0605066
110	232	0.18080832	0.100762
110	242	0.18093136	0.100885
110	298	0.221064	0.141018
110	308	0.22118704	0.141141
110	388	0.26131968	0.181274
110	398	0.26144272	0.181397
110	408	0.26156576	0.18152
110	418	0.2616888	0.181643
110	520	0.30157536	0.221529
110	530	0.3016984	0.221652
110	540	0.30182144	0.221775
110	550	0.30194448	0.221898
110	700	0.34183104	0.261785
110	710	0.34195408	0.261908
110	720	0.34207712	0.262031
110	730	0.34220016	0.262154
110	740	0.3423232	0.262277
110	750	0.34244624	0.2624
110	760	0.34256928	0.262523
110	770	0.34269232	0.262646
110	964	0.38208672	0.302041
110	974	0.38220976	0.302164
110	984	0.3823328	0.302287
110	994	0.38245584	0.30241
110	1004	0.38257888	0.302533
110	1014	0.38270192	0.302656
110	1024	0.38282496	0.302779
110	1034	0.382948	0.302902
110	1300	0.4223424	0.342296
110	1310	0.42246544	0.342419
110	1320	0.42258848	0.342542
110	1330	0.42271152	0.342665
110	1340	0.42283456	0.342788
110	1350	0.4229576	0.342912
110	1360	0.42308064	0.343035
110	1370	0.42320368	0.343158
110	1380	0.42332672	0.343281
110	1390	0.42344976	0.343404
110	1400	0.4235728	0.343527
110	1410	0.42369584	0.34365
110	1420	0.42381888	0.343773
110	1430	0.42394192	0.343896
110	1762	0.46259808	0.382552
110	1772	0.46272112	0.382675
110	1782	0.46284416	0.382798
110	1792	0.4629672	0.382921
110	1802	0.46309024	0.383044
110	1812	0.46321328	0.383167
110	1822	0.46333632	0.38329
110	1832	0.46345936	0.383413
110	1842	0.4635824	0.383536
110	1852	0.46370544	0.383659
110	1862	0.46382848	0.383782
110	1872	0.46395152	0.383905
110	1882	0.46407456	0.384028
110	1892	0.4641976	0.384152
110	2224	0.50285376	0.422808
110	2234	0.5029768	0.422931
110	2244	0.50309984	0.423054
110	2254	0.50322288	0.423177
110	2264	0.50334592	0.4233
110	2274	0.50346896	0.423423
110	2284	0.503592	0.423546
110	2294	0.50371504	0.423669
110	2304	0.50383808	0.423792
110	2314	0.50396112	0.423915
110	2324	0.50408416	0.424038
110	2334	0.5042072	0.424161
110	2344	0.50433024	0.424284
110	2354	0.50445328	0.424407
111	157	0.1	13280
111	301	0.2	18560
111	523	0.3	27840
111	1303	0.4	92800
111	2227	0.5	129920
112	157	0.1	13280
112	301	0.2	18560
112	523	0.3	27840
112	1303	0.4	92800
112	2227	0.5	129920
113	164	0.1	8640
113	318	0.2	18560
113	560	0.3	27840
113	1440	0.4	92800
113	2364	0.5	129920
114	164	0.1	8640
114	318	0.2	18560
114	560	0.3	27840
114	1440	0.4	92800
114	2364	0.5	129920
115	170	0.12030848	0.0402624
115	203	0.16056416	0.0402557
115	265	0.20081984	0.0402557
115	331	0.24107552	0.0402557
115	455	0.2813312	0.0402557
115	587	0.32158688	0.0402557
115	835	0.36184256	0.0402557
115	1099	0.40209824	0.0402557
115	1537	0.44235392	0.0402557
115	1999	0.4826096	0.0402557
115	2461	0.52286528	0.0402557
116	170	0.12030848	0.0402624
116	203	0.16056416	0.0402557
116	265	0.20081984	0.0402557
116	331	0.24107552	0.0402557
116	455	0.2813312	0.0402557
116	587	0.32158688	0.0402557
116	835	0.36184256	0.0402557
116	1099	0.40209824	0.0402557
116	1537	0.44235392	0.0402557
116	1999	0.4826096	0.0402557
116	2461	0.52286528	0.0402557
117	170	0.12030848	0.0050328
117	203	0.16056416	0.00943566
117	265	0.20081984	0.0132882
117	331	0.24107552	0.0166591
117	455	0.2813312	0.0196087
117	587	0.32158688	0.0221896
117	835	0.36184256	0.0244478
117	1099	0.40209824	0.0264238
117	1537	0.44235392	0.0281528
117	1999	0.4826096	0.0296656
117	2461	0.52286528	0.0309894
118	170	0.12030848	0.661283
118	203	0.16056416	0.583025
118	265	0.20081984	0.514
118	331	0.24107552	0.453121
118	455	0.2813312	0.39943
118	587	0.32158688	0.352082
118	835	0.36184256	0.31033
118	1099	0.40209824	0.273515
118	1537	0.44235392	0.241055
118	1999	0.4826096	0.212436
118	2461	0.52286528	0.187205
119	170	0.12030848	2.65016
119	203	0.16056416	2.34154
119	265	0.20081984	2.06929
119	331	0.24107552	1.82914
119	455	0.2813312	1.61733
119	587	0.32158688	1.43052
119	835	0.36184256	1.26577
119	1099	0.40209824	1.12048
119	1537	0.44235392	1
119	1999	0.4826096	1
119	2461	0.52286528	1
120	170	0.12030848	0
120	203	0.16056416	0
120	265	0.20081984	0
120	274	0.20094288	0
120	331	0.24107552	0
120	343	0.24119856	0
120	455	0.2813312	0
120	464	0.28145424	0
120	473	0.28157728	0
120	482	0.28170032	0
120	587	0.32158688	0
120	599	0.32170992	0
120	611	0.32183296	0
120	623	0.321956	0
120	835	0.36184256	0
120	844	0.3619656	0
120	853	0.36208864	0
120	862	0.36221168	0
120	871	0.36233472	0
120	880	0.36245776	0
120	889	0.3625808	0
120	898	0.36270384	0
120	1099	0.40209824	0
120	1111	0.40222128	0
120	1123	0.40234432	0
120	1135	0.40246736	0
120	1147	0.4025904	0
120	1159	0.40271344	0
120	1171	0.40283648	0
120	1180	0.40295952	0
120	1537	0.44235392	0
120	1546	0.44247696	0
120	1555	0.4426	0
120	1564	0.44272304	0
120	1573	0.44284608	0
120	1582	0.44296912	0
120	1591	0.44309216	0
120	1600	0.4432152	0
120	1609	0.44333824	0
120	1618	0.44346128	0
120	1627	0.44358432	0
120	1636	0.44370736	0
120	1645	0.4438304	0
120	1654	0.44395344	0
120	1999	0.4826096	0
120	2008	0.48273264	0
120	2017	0.48285568	0
120	2026	0.48297872	0
120	2035	0.48310176	0
120	2044	0.4832248	0
120	2053	0.48334784	0
120	2062	0.48347088	0
120	2071	0.48359392	0
120	2080	0.48371696	0
120	2089	0.48384	0
120	2098	0.48396304	0
120	2107	0.48408608	0
120	2116	0.48420912	0
120	2461	0.52286528	0
120	2470	0.52298832	0
120	2479	0.52311136	0
120	2488	0.5232344	0
120	2497	0.52335744	0
120	2506	0.52348048	0
120	2515	0.52360352	0
120	2524	0.52372656	0
120	2533	0.5238496	0
120	2542	0.52397264	0
120	2551	0.52409568	0
120	2560	0.52421872	0
120	2569	0.52434176	0
120	2578	0.5244648	0
121	173	0.1	134720
121	268	0.2	364320
121	592	0.3	1.2144e+06
121	1104	0.4	1.94304e+06
121	2464	0.5	5.10048e+06
122	173	0.1	134720
122	268	0.2	364320
122	592	0.3	1.2144e+06
122	1104	0.4	1.94304e+06
122	2464	0.5	5.10048e+06
123	180	0.1	139680
123	284	0.2	364320
123	644	0.3	1.2144e+06
123	1202	0.4	1.94304e+06
123	2588	0.5	5.10048e+06
124	180	0.1	139680
124	284	0.2	364320
124	644	0.3	1.2144e+06
124	1202	0.4	1.94304e+06
124	2588	0.5	5.10048e+06
125	203	0.16056416	2920
125	331	0.24107552	4380
125	343	0.24119856	5840
125	587	0.32158688	7300
125	599	0.32170992	8760
125	611	0.32183296	10220
125	623	0.321956	11680
125	1099	0.40209824	13140
125	1111	0.40222128	14600
125	1123	0.40234432	16060
125	1135	0.40246736	17520
125	1147	0.4025904	18980
125	1159	0.40271344	20440
125	1171	0.40283648	21900
125	1180	0.40295952	23360
125	1999	0.4826096	24820
125	2008	0.48273264	26280
125	2017	0.48285568	27740
125	2026	0.48297872	29200
125	2035	0.48310176	30660
125	2044	0.4832248	32120
125	2053	0.48334784	33580
125	2062	0.48347088	35040
125	2071	0.48359392	36500
125	2080	0.48371696	37960
125	2089	0.48384	39420
125	2098	0.48396304	40880
125	2107	0.48408608	42340
125	2116	0.48420912	43800
126	203	0.16056416	2920
126	331	0.24107552	4380
126	343	0.24119856	5840
126	587	0.32158688	7300
126	599	0.32170992	8760
126	611	0.32183296	10220
126	623	0.321956	11680
126	1099	0.40209824	13140
126	1111	0.40222128	14600
126	1123	0.40234432	16060
126	1135	0.40246736	17520
126	1147	0.4025904	18980
126	1159	0.40271344	20440
126	1171	0.40283648	21900
126	1180	0.40295952	23360
126	1999	0.4826096	24820
126	2008	0.48273264	26280
126	2017	0.48285568	27740
126	2026	0.48297872	29200
126	2035	0.48310176	30660
126	2044	0.4832248	32120
126	2053	0.48334784	33580
126	2062	0.48347088	35040
126	2071	0.48359392	36500
126	2080	0.48371696	37960
126	2089	0.48384	39420
126	2098	0.48396304	40880
126	2107	0.48408608	42340
126	2116	0.48420912	43800
vector 127 TcpVariants.router.eth[2].queue outgoingDataRate:vector ETV
attr interpolationmode linear
attr recordingmode vector
attr source throughput(packetPulled)
attr title "outgoing datarate"
attr unit bps
vector 128 TcpVariants.router.eth[2].queue incomingDataRate:vector ETV
attr interpolationmode linear
attr recordingmode vector
attr source throughput(packetPushStarted)
attr title "incoming datarate"
attr unit bps
vector 129 TcpVariants.trafficGen.eth[0].queue outgoingDataRate:vector ETV
attr interpolationmode linear
attr recordingmode vector
attr source throughput(packetPulled)
attr title "outgoing datarate"
attr unit bps
vector 130 TcpVariants.trafficGen.eth[0].queue incomingDataRate:vector ETV
attr interpolationmode linear
attr recordingmode vector
attr source throughput(packetPushStarted)
attr title "incoming datarate"
attr unit bps
111	2681	0.537352278559	173912
112	2681	0.537352278559	173912
113	2681	0.537352278559	173912
114	2681	0.537352278559	173912
121	2681	0.537352278559	4.55169e+06
122	2681	0.537352278559	4.55169e+06
123	2681	0.537352278559	4.55169e+06
124	2681	0.537352278559	4.55169e+06
127	2681	0.1	8320
127	2681	0.2	0
127	2681	0.3	0
127	2681	0.4	0
127	2681	0.5	0
127	2681	0.537352278559	0
128	2681	0.1	8320
128	2681	0.2	0
128	2681	0.3	0
128	2681	0.4	0
128	2681	0.5	0
128	2681	0.537352278559	0
129	2681	0.1	8640
129	2681	0.2	0
129	2681	0.3	0
129	2681	0.4	0
129	2681	0.5	0
129	2681	0.537352278559	0
130	2681	0.1	8640
130	2681	0.2	0
130	2681	0.3	0
130	2681	0.4	0
130	2681	0.5	0
130	2681	0.537352278559	0

