version 3
run Reno-0-20250707-22:39:17-18116
attr configname Reno
attr datetime 20250707-22:39:17
attr datetimef 20250707-223917
attr experiment Reno
attr inifile omnetpp.ini
attr iterationvars ""
attr iterationvarsd ""
attr iterationvarsf ""
attr measurement ""
attr network TcpVariantsSim.TcpVariants
attr processid 18116
attr repetition 0
attr replication #0
attr resultdir results/Reno
attr runnumber 0
attr seedset 0
config image-path ../inet4.5/images
config description "TCP Reno test"
config result-dir results/Reno
config **.sender.tcp.tcpAlgorithmClass "\"TcpReno\""
config network TcpVariantsSim.TcpVariants
config sim-time-limit 20s
config record-eventlog false
config **.vector-recording true
config **.scalar-recording true
config output-vector-precision 6
config *.eth[].typename EthernetInterface
config *.eth[].dataRate 100Mbps
config *.eth[].queue.typename DropTailQueue
config *.eth[].queue.frameCapacity 500
config **.sender.numApps 1
config **.sender.app[0].typename TcpSessionApp
config **.sender.app[0].localPort 1000
config **.sender.app[0].connectAddress "\"receiver\""
config **.sender.app[0].connectPort 1000
config **.sender.app[0].tOpen 0s
config **.sender.app[0].tSend 0s
config **.sender.app[0].sendBytes 100MiB
config **.sender.app[0].tClose -1s
config **.receiver.numApps 1
config **.receiver.app[0].typename TcpSinkApp
config **.receiver.app[0].localPort 1000
config **.trafficGen.numApps 1
config **.trafficGen.app[0].typename TcpSessionApp
config **.trafficGen.app[0].localPort 2000
config **.trafficGen.app[0].connectAddress "\"receiver\""
config **.trafficGen.app[0].connectPort 2000
config **.trafficGen.app[0].tOpen 0s
config **.trafficGen.app[0].tSend 0s
config **.trafficGen.app[0].sendBytes 50MiB
config **.trafficGen.app[0].tClose -1s
config **.sender.hasTcp true
config **.sender.tcp.typename Tcp
config **.receiver.hasTcp true
config **.receiver.tcp.typename Tcp
config **.tcp.recordStatistics true
config **.tcp.mss 1460
config **.throughput:vector.record vector
config **.throughput:scalar.record avg
config **.endToEndDelay:vector.record vector
config **.endToEndDelay:scalar.record avg
config **.packetLoss:vector.record vector
config **.packetLoss:scalar.record sum
config **.cwnd:vector.record vector
config **.cwnd:scalar.record avg
config **.rtt:vector.record vector
config **.rtt:scalar.record avg
config **.sender.tcp.sentData:vector.record vector
config **.sender.tcp.rcvdData:vector.record vector
config **.sender.tcp.cwnd:vector.record vector
config **.sender.tcp.rtt:vector.record vector
config **.sender.tcp.packetLoss:vector.record vector
config **.sender.tcp.sentData:scalar.record sum
config **.sender.tcp.rcvdData:scalar.record sum
config **.sender.tcp.cwnd:scalar.record avg
config **.sender.tcp.rtt:scalar.record avg
config **.sender.tcp.packetLoss:scalar.record sum
config **.receiver.tcp.sentData:vector.record vector
config **.receiver.tcp.rcvdData:vector.record vector
config **.receiver.tcp.packetLoss:vector.record vector
config **.receiver.tcp.sentData:scalar.record sum
config **.receiver.tcp.rcvdData:scalar.record sum
config **.receiver.tcp.packetLoss:scalar.record sum

vector 0 TcpVariants.sender.eth[0].queue queueLength:vector ETV
attr autoWarmupFilter false
attr interpolationmode sample-hold
attr recordingmode vector
attr source "warmup(atomic(constant0(packetPushEnded) + count(packetPushStarted) - count(packetPulled) - count(packetRemoved) - count(packetDropped)))"
attr title "queue length"
attr unit pk
vector 1 TcpVariants.sender.eth[0].queue queueBitLength:vector ETV
attr autoWarmupFilter false
attr interpolationmode sample-hold
attr recordingmode vector
attr source "warmup(atomic(constant0(packetPushEnded) + sum(packetLength(packetPushStarted)) - sum(packetLength(packetPulled)) - sum(packetLength(packetRemoved)) - sum(packetLength(packetDropped))))"
attr title "queue bit length"
attr unit b
vector 2 TcpVariants.sender.udp passedUpPk:vector(count) ETV
attr interpolationmode none
attr recordingmode vector(count)
attr source packetSentToUpper
attr title "packets passed up, count"
vector 3 TcpVariants.sender.udp droppedPkWrongPort:vector(count) ETV
attr interpolationmode none
attr recordingmode vector(count)
attr source packetDropReasonIsNoPortFound(packetDropped)
attr title "packets dropped (wrong port), count"
vector 4 TcpVariants.sender.udp droppedPkBadChecksum:vector(count) ETV
attr interpolationmode none
attr recordingmode vector(count)
attr source packetDropReasonIsIncorrectlyReceived(packetDropped)
attr title "packets dropped (checksum error), count"
vector 5 TcpVariants.router.eth[0].queue queueLength:vector ETV
attr autoWarmupFilter false
attr interpolationmode sample-hold
attr recordingmode vector
attr source "warmup(atomic(constant0(packetPushEnded) + count(packetPushStarted) - count(packetPulled) - count(packetRemoved) - count(packetDropped)))"
attr title "queue length"
attr unit pk
vector 6 TcpVariants.router.eth[0].queue queueBitLength:vector ETV
attr autoWarmupFilter false
attr interpolationmode sample-hold
attr recordingmode vector
attr source "warmup(atomic(constant0(packetPushEnded) + sum(packetLength(packetPushStarted)) - sum(packetLength(packetPulled)) - sum(packetLength(packetRemoved)) - sum(packetLength(packetDropped))))"
attr title "queue bit length"
attr unit b
vector 7 TcpVariants.router.eth[1].queue queueLength:vector ETV
attr autoWarmupFilter false
attr interpolationmode sample-hold
attr recordingmode vector
attr source "warmup(atomic(constant0(packetPushEnded) + count(packetPushStarted) - count(packetPulled) - count(packetRemoved) - count(packetDropped)))"
attr title "queue length"
attr unit pk
vector 8 TcpVariants.router.eth[1].queue queueBitLength:vector ETV
attr autoWarmupFilter false
attr interpolationmode sample-hold
attr recordingmode vector
attr source "warmup(atomic(constant0(packetPushEnded) + sum(packetLength(packetPushStarted)) - sum(packetLength(packetPulled)) - sum(packetLength(packetRemoved)) - sum(packetLength(packetDropped))))"
attr title "queue bit length"
attr unit b
vector 9 TcpVariants.router.eth[2].queue queueLength:vector ETV
attr autoWarmupFilter false
attr interpolationmode sample-hold
attr recordingmode vector
attr source "warmup(atomic(constant0(packetPushEnded) + count(packetPushStarted) - count(packetPulled) - count(packetRemoved) - count(packetDropped)))"
attr title "queue length"
attr unit pk
vector 10 TcpVariants.router.eth[2].queue queueBitLength:vector ETV
attr autoWarmupFilter false
attr interpolationmode sample-hold
attr recordingmode vector
attr source "warmup(atomic(constant0(packetPushEnded) + sum(packetLength(packetPushStarted)) - sum(packetLength(packetPulled)) - sum(packetLength(packetRemoved)) - sum(packetLength(packetDropped))))"
attr title "queue bit length"
attr unit b
vector 11 TcpVariants.receiver.eth[0].queue queueLength:vector ETV
attr autoWarmupFilter false
attr interpolationmode sample-hold
attr recordingmode vector
attr source "warmup(atomic(constant0(packetPushEnded) + count(packetPushStarted) - count(packetPulled) - count(packetRemoved) - count(packetDropped)))"
attr title "queue length"
attr unit pk
vector 12 TcpVariants.receiver.eth[0].queue queueBitLength:vector ETV
attr autoWarmupFilter false
attr interpolationmode sample-hold
attr recordingmode vector
attr source "warmup(atomic(constant0(packetPushEnded) + sum(packetLength(packetPushStarted)) - sum(packetLength(packetPulled)) - sum(packetLength(packetRemoved)) - sum(packetLength(packetDropped))))"
attr title "queue bit length"
attr unit b
vector 13 TcpVariants.receiver.udp passedUpPk:vector(count) ETV
attr interpolationmode none
attr recordingmode vector(count)
attr source packetSentToUpper
attr title "packets passed up, count"
vector 14 TcpVariants.receiver.udp droppedPkWrongPort:vector(count) ETV
attr interpolationmode none
attr recordingmode vector(count)
attr source packetDropReasonIsNoPortFound(packetDropped)
attr title "packets dropped (wrong port), count"
vector 15 TcpVariants.receiver.udp droppedPkBadChecksum:vector(count) ETV
attr interpolationmode none
attr recordingmode vector(count)
attr source packetDropReasonIsIncorrectlyReceived(packetDropped)
attr title "packets dropped (checksum error), count"
vector 16 TcpVariants.trafficGen.eth[0].queue queueLength:vector ETV
attr autoWarmupFilter false
attr interpolationmode sample-hold
attr recordingmode vector
attr source "warmup(atomic(constant0(packetPushEnded) + count(packetPushStarted) - count(packetPulled) - count(packetRemoved) - count(packetDropped)))"
attr title "queue length"
attr unit pk
vector 17 TcpVariants.trafficGen.eth[0].queue queueBitLength:vector ETV
attr autoWarmupFilter false
attr interpolationmode sample-hold
attr recordingmode vector
attr source "warmup(atomic(constant0(packetPushEnded) + sum(packetLength(packetPushStarted)) - sum(packetLength(packetPulled)) - sum(packetLength(packetRemoved)) - sum(packetLength(packetDropped))))"
attr title "queue bit length"
attr unit b
vector 18 TcpVariants.trafficGen.udp passedUpPk:vector(count) ETV
attr interpolationmode none
attr recordingmode vector(count)
attr source packetSentToUpper
attr title "packets passed up, count"
vector 19 TcpVariants.trafficGen.udp droppedPkWrongPort:vector(count) ETV
attr interpolationmode none
attr recordingmode vector(count)
attr source packetDropReasonIsNoPortFound(packetDropped)
attr title "packets dropped (wrong port), count"
vector 20 TcpVariants.trafficGen.udp droppedPkBadChecksum:vector(count) ETV
attr interpolationmode none
attr recordingmode vector(count)
attr source packetDropReasonIsIncorrectlyReceived(packetDropped)
attr title "packets dropped (checksum error), count"
vector 21 TcpVariants.sender.tcp.conn-3 tcpRcvQueueBytes:vector ETV
attr interpolationmode sample-hold
attr recordingmode vector
vector 22 TcpVariants.sender.tcp.conn-3 rcvAdv:vector ETV
attr interpolationmode sample-hold
attr recordingmode vector
vector 23 TcpVariants.sender.tcp.conn-3 rcvWnd:vector ETV
attr interpolationmode sample-hold
attr recordingmode vector
vector 24 TcpVariants.sender.tcp.conn-3 sndAck:vector ETV
attr interpolationmode sample-hold
attr recordingmode vector
vector 25 TcpVariants.trafficGen.tcp.conn-4 tcpRcvQueueBytes:vector ETV
attr interpolationmode sample-hold
attr recordingmode vector
vector 26 TcpVariants.trafficGen.tcp.conn-4 rcvAdv:vector ETV
attr interpolationmode sample-hold
attr recordingmode vector
vector 27 TcpVariants.trafficGen.tcp.conn-4 rcvWnd:vector ETV
attr interpolationmode sample-hold
attr recordingmode vector
vector 28 TcpVariants.trafficGen.tcp.conn-4 sndAck:vector ETV
attr interpolationmode sample-hold
attr recordingmode vector
vector 29 TcpVariants.sender.ipv4.arp arpRequestSent:vector(packetBytes) ETV
attr recordingmode vector(packetBytes)
attr source arpRequestSent
attr title "ARP request sent, packetBytes"
vector 30 TcpVariants.trafficGen.ipv4.arp arpRequestSent:vector(packetBytes) ETV
attr recordingmode vector(packetBytes)
attr source arpRequestSent
attr title "ARP request sent, packetBytes"
vector 31 TcpVariants.sender.ethernet encapPk:vector(packetBytes) ETV
attr interpolationmode none
attr recordingmode vector(packetBytes)
attr source encapPk
attr title "packets encapsulated, packetBytes"
vector 32 TcpVariants.trafficGen.ethernet encapPk:vector(packetBytes) ETV
attr interpolationmode none
attr recordingmode vector(packetBytes)
attr source encapPk
attr title "packets encapsulated, packetBytes"
vector 33 TcpVariants.sender.eth[0].queue incomingPacketLengths:vector ETV
attr interpolationmode none
attr recordingmode vector
attr source packetLength(packetPushStarted)
attr title "incoming packet lengths"
attr unit b
vector 34 TcpVariants.sender.eth[0].queue queueingTime:vector ETV
attr interpolationmode none
attr recordingmode vector
attr source queueingTime(packetPulled)
attr title "queueing times"
attr unit s
vector 35 TcpVariants.sender.eth[0].queue outgoingPacketLengths:vector ETV
attr interpolationmode none
attr recordingmode vector
attr source packetLength(packetPulled)
attr title "outgoing packet lengths"
attr unit b
vector 36 TcpVariants.sender.eth[0].mac packetReceivedFromUpper:vector(packetBytes) ETV
attr interpolationmode none
attr recordingmode vector(packetBytes)
attr source packetReceivedFromUpper
attr title "packet bytes from higher layer, packetBytes"
vector 37 TcpVariants.trafficGen.eth[0].queue incomingPacketLengths:vector ETV
attr interpolationmode none
attr recordingmode vector
attr source packetLength(packetPushStarted)
attr title "incoming packet lengths"
attr unit b
vector 38 TcpVariants.trafficGen.eth[0].queue queueingTime:vector ETV
attr interpolationmode none
attr recordingmode vector
attr source queueingTime(packetPulled)
attr title "queueing times"
attr unit s
vector 39 TcpVariants.trafficGen.eth[0].queue outgoingPacketLengths:vector ETV
attr interpolationmode none
attr recordingmode vector
attr source packetLength(packetPulled)
attr title "outgoing packet lengths"
attr unit b
vector 40 TcpVariants.trafficGen.eth[0].mac packetReceivedFromUpper:vector(packetBytes) ETV
attr interpolationmode none
attr recordingmode vector(packetBytes)
attr source packetReceivedFromUpper
attr title "packet bytes from higher layer, packetBytes"
vector 41 TcpVariants.sender.eth[0].mac txPk:vector(packetBytes) ETV
attr interpolationmode none
attr recordingmode vector(packetBytes)
attr source packetSentToLower
attr title "packets transmitted, packetBytes"
vector 42 TcpVariants.trafficGen.eth[0].mac txPk:vector(packetBytes) ETV
attr interpolationmode none
attr recordingmode vector(packetBytes)
attr source packetSentToLower
attr title "packets transmitted, packetBytes"
vector 43 TcpVariants.router.eth[0].mac rxPkOk:vector(packetBytes) ETV
attr interpolationmode none
attr recordingmode vector(packetBytes)
attr source rxPkOk
attr title "packets received OK, packetBytes"
vector 44 TcpVariants.router.eth[0].mac passedUpPk:vector(packetBytes) ETV
attr interpolationmode none
attr recordingmode vector(packetBytes)
attr source packetSentToUpper
attr title "packets passed to higher layer, packetBytes"
vector 45 TcpVariants.router.eth[2].mac rxPkOk:vector(packetBytes) ETV
attr interpolationmode none
attr recordingmode vector(packetBytes)
attr source rxPkOk
attr title "packets received OK, packetBytes"
vector 46 TcpVariants.router.eth[2].mac passedUpPk:vector(packetBytes) ETV
attr interpolationmode none
attr recordingmode vector(packetBytes)
attr source packetSentToUpper
attr title "packets passed to higher layer, packetBytes"
vector 47 TcpVariants.router.ethernet decapPk:vector(packetBytes) ETV
attr interpolationmode none
attr recordingmode vector(packetBytes)
attr source decapPk
attr title "packets decapsulated, packetBytes"
vector 48 TcpVariants.router.ipv4.arp arpReplySent:vector(packetBytes) ETV
attr recordingmode vector(packetBytes)
attr source arpReplySent
attr title "ARP replies sent, packetBytes"
vector 49 TcpVariants.router.ethernet encapPk:vector(packetBytes) ETV
attr interpolationmode none
attr recordingmode vector(packetBytes)
attr source encapPk
attr title "packets encapsulated, packetBytes"
vector 50 TcpVariants.router.eth[0].queue incomingPacketLengths:vector ETV
attr interpolationmode none
attr recordingmode vector
attr source packetLength(packetPushStarted)
attr title "incoming packet lengths"
attr unit b
vector 51 TcpVariants.router.eth[0].queue queueingTime:vector ETV
attr interpolationmode none
attr recordingmode vector
attr source queueingTime(packetPulled)
attr title "queueing times"
attr unit s
vector 52 TcpVariants.router.eth[0].queue outgoingPacketLengths:vector ETV
attr interpolationmode none
attr recordingmode vector
attr source packetLength(packetPulled)
attr title "outgoing packet lengths"
attr unit b
vector 53 TcpVariants.router.eth[0].mac packetReceivedFromUpper:vector(packetBytes) ETV
attr interpolationmode none
attr recordingmode vector(packetBytes)
attr source packetReceivedFromUpper
attr title "packet bytes from higher layer, packetBytes"
vector 54 TcpVariants.router.eth[2].queue incomingPacketLengths:vector ETV
attr interpolationmode none
attr recordingmode vector
attr source packetLength(packetPushStarted)
attr title "incoming packet lengths"
attr unit b
vector 55 TcpVariants.router.eth[2].queue queueingTime:vector ETV
attr interpolationmode none
attr recordingmode vector
attr source queueingTime(packetPulled)
attr title "queueing times"
attr unit s
vector 56 TcpVariants.router.eth[2].queue outgoingPacketLengths:vector ETV
attr interpolationmode none
attr recordingmode vector
attr source packetLength(packetPulled)
attr title "outgoing packet lengths"
attr unit b
vector 57 TcpVariants.router.eth[2].mac packetReceivedFromUpper:vector(packetBytes) ETV
attr interpolationmode none
attr recordingmode vector(packetBytes)
attr source packetReceivedFromUpper
attr title "packet bytes from higher layer, packetBytes"
vector 58 TcpVariants.router.eth[0].mac txPk:vector(packetBytes) ETV
attr interpolationmode none
attr recordingmode vector(packetBytes)
attr source packetSentToLower
attr title "packets transmitted, packetBytes"
vector 59 TcpVariants.router.eth[2].mac txPk:vector(packetBytes) ETV
attr interpolationmode none
attr recordingmode vector(packetBytes)
attr source packetSentToLower
attr title "packets transmitted, packetBytes"
vector 60 TcpVariants.sender.eth[0].mac rxPkOk:vector(packetBytes) ETV
attr interpolationmode none
attr recordingmode vector(packetBytes)
attr source rxPkOk
attr title "packets received OK, packetBytes"
vector 61 TcpVariants.sender.eth[0].mac passedUpPk:vector(packetBytes) ETV
attr interpolationmode none
attr recordingmode vector(packetBytes)
attr source packetSentToUpper
attr title "packets passed to higher layer, packetBytes"
vector 62 TcpVariants.trafficGen.eth[0].mac rxPkOk:vector(packetBytes) ETV
attr interpolationmode none
attr recordingmode vector(packetBytes)
attr source rxPkOk
attr title "packets received OK, packetBytes"
vector 63 TcpVariants.trafficGen.eth[0].mac passedUpPk:vector(packetBytes) ETV
attr interpolationmode none
attr recordingmode vector(packetBytes)
attr source packetSentToUpper
attr title "packets passed to higher layer, packetBytes"
vector 64 TcpVariants.sender.ethernet decapPk:vector(packetBytes) ETV
attr interpolationmode none
attr recordingmode vector(packetBytes)
attr source decapPk
attr title "packets decapsulated, packetBytes"
vector 65 TcpVariants.trafficGen.ethernet decapPk:vector(packetBytes) ETV
attr interpolationmode none
attr recordingmode vector(packetBytes)
attr source decapPk
attr title "packets decapsulated, packetBytes"
vector 66 TcpVariants.router.ipv4.arp arpRequestSent:vector(packetBytes) ETV
attr recordingmode vector(packetBytes)
attr source arpRequestSent
attr title "ARP request sent, packetBytes"
vector 67 TcpVariants.router.eth[1].queue incomingPacketLengths:vector ETV
attr interpolationmode none
attr recordingmode vector
attr source packetLength(packetPushStarted)
attr title "incoming packet lengths"
attr unit b
vector 68 TcpVariants.router.eth[1].queue queueingTime:vector ETV
attr interpolationmode none
attr recordingmode vector
attr source queueingTime(packetPulled)
attr title "queueing times"
attr unit s
vector 69 TcpVariants.router.eth[1].queue outgoingPacketLengths:vector ETV
attr interpolationmode none
attr recordingmode vector
attr source packetLength(packetPulled)
attr title "outgoing packet lengths"
attr unit b
vector 70 TcpVariants.router.eth[1].mac packetReceivedFromUpper:vector(packetBytes) ETV
attr interpolationmode none
attr recordingmode vector(packetBytes)
attr source packetReceivedFromUpper
attr title "packet bytes from higher layer, packetBytes"
vector 71 TcpVariants.router.eth[1].mac txPk:vector(packetBytes) ETV
attr interpolationmode none
attr recordingmode vector(packetBytes)
attr source packetSentToLower
attr title "packets transmitted, packetBytes"
vector 72 TcpVariants.receiver.eth[0].mac rxPkOk:vector(packetBytes) ETV
attr interpolationmode none
attr recordingmode vector(packetBytes)
attr source rxPkOk
attr title "packets received OK, packetBytes"
vector 73 TcpVariants.receiver.eth[0].mac passedUpPk:vector(packetBytes) ETV
attr interpolationmode none
attr recordingmode vector(packetBytes)
attr source packetSentToUpper
attr title "packets passed to higher layer, packetBytes"
vector 74 TcpVariants.receiver.ethernet decapPk:vector(packetBytes) ETV
attr interpolationmode none
attr recordingmode vector(packetBytes)
attr source decapPk
attr title "packets decapsulated, packetBytes"
vector 75 TcpVariants.receiver.ipv4.arp arpReplySent:vector(packetBytes) ETV
attr recordingmode vector(packetBytes)
attr source arpReplySent
attr title "ARP replies sent, packetBytes"
vector 76 TcpVariants.receiver.ethernet encapPk:vector(packetBytes) ETV
attr interpolationmode none
attr recordingmode vector(packetBytes)
attr source encapPk
attr title "packets encapsulated, packetBytes"
vector 77 TcpVariants.receiver.eth[0].queue incomingPacketLengths:vector ETV
attr interpolationmode none
attr recordingmode vector
attr source packetLength(packetPushStarted)
attr title "incoming packet lengths"
attr unit b
vector 78 TcpVariants.receiver.eth[0].queue queueingTime:vector ETV
attr interpolationmode none
attr recordingmode vector
attr source queueingTime(packetPulled)
attr title "queueing times"
attr unit s
vector 79 TcpVariants.receiver.eth[0].queue outgoingPacketLengths:vector ETV
attr interpolationmode none
attr recordingmode vector
attr source packetLength(packetPulled)
attr title "outgoing packet lengths"
attr unit b
vector 80 TcpVariants.receiver.eth[0].mac packetReceivedFromUpper:vector(packetBytes) ETV
attr interpolationmode none
attr recordingmode vector(packetBytes)
attr source packetReceivedFromUpper
attr title "packet bytes from higher layer, packetBytes"
vector 81 TcpVariants.receiver.eth[0].mac txPk:vector(packetBytes) ETV
attr interpolationmode none
attr recordingmode vector(packetBytes)
attr source packetSentToLower
attr title "packets transmitted, packetBytes"
vector 82 TcpVariants.router.eth[1].mac rxPkOk:vector(packetBytes) ETV
attr interpolationmode none
attr recordingmode vector(packetBytes)
attr source rxPkOk
attr title "packets received OK, packetBytes"
vector 83 TcpVariants.router.eth[1].mac passedUpPk:vector(packetBytes) ETV
attr interpolationmode none
attr recordingmode vector(packetBytes)
attr source packetSentToUpper
attr title "packets passed to higher layer, packetBytes"
vector 84 TcpVariants.receiver.tcp.conn-1 rcvSeq:vector ETV
attr interpolationmode sample-hold
attr recordingmode vector
vector 85 TcpVariants.receiver.tcp.conn-1 rcvAck:vector ETV
attr interpolationmode sample-hold
attr recordingmode vector
vector 86 TcpVariants.receiver.tcp.conn-1 tcpRcvPayloadBytes:vector ETV
attr interpolationmode sample-hold
attr recordingmode vector
vector 87 TcpVariants.receiver.tcp.conn-5 rcvAdv:vector ETV
attr interpolationmode sample-hold
attr recordingmode vector
vector 88 TcpVariants.receiver.tcp.conn-5 sndWnd:vector ETV
attr interpolationmode sample-hold
attr recordingmode vector
vector 89 TcpVariants.receiver.tcp.conn-5 tcpRcvQueueBytes:vector ETV
attr interpolationmode sample-hold
attr recordingmode vector
vector 90 TcpVariants.receiver.tcp.conn-5 rcvWnd:vector ETV
attr interpolationmode sample-hold
attr recordingmode vector
vector 91 TcpVariants.receiver.tcp.conn-5 sndAck:vector ETV
attr interpolationmode sample-hold
attr recordingmode vector
vector 92 TcpVariants.sender.tcp.conn-3 rcvSeq:vector ETV
attr interpolationmode sample-hold
attr recordingmode vector
vector 93 TcpVariants.sender.tcp.conn-3 rcvAck:vector ETV
attr interpolationmode sample-hold
attr recordingmode vector
vector 94 TcpVariants.sender.tcp.conn-3 tcpRcvPayloadBytes:vector ETV
attr interpolationmode sample-hold
attr recordingmode vector
vector 95 TcpVariants.sender.tcp.conn-3 sndWnd:vector ETV
attr interpolationmode sample-hold
attr recordingmode vector
vector 96 TcpVariants.sender.app[0] packetSent:vector(packetBytes) ETV
attr interpolationmode none
attr recordingmode vector(packetBytes)
attr source packetSent
attr title "packets sent, packetBytes"
vector 97 TcpVariants.sender.tcp.conn-3 sndNxt:vector ETV
attr interpolationmode sample-hold
attr recordingmode vector
vector 98 TcpVariants.sender.tcp.conn-3 unacked:vector ETV
attr interpolationmode sample-hold
attr recordingmode vector
vector 99 TcpVariants.trafficGen.tcp.conn-4 rcvSeq:vector ETV
attr interpolationmode sample-hold
attr recordingmode vector
vector 100 TcpVariants.trafficGen.tcp.conn-4 rcvAck:vector ETV
attr interpolationmode sample-hold
attr recordingmode vector
vector 101 TcpVariants.trafficGen.tcp.conn-4 tcpRcvPayloadBytes:vector ETV
attr interpolationmode sample-hold
attr recordingmode vector
101	124	0.0800528	0
25	5	0	0
100	124	0.0800528	1
99	124	0.0800528	0
28	5	0	0
26	5	0	20440
27	5	0	20440
vector 102 TcpVariants.receiver.tcp.conn-5 rcvSeq:vector ETV
attr interpolationmode sample-hold
attr recordingmode vector
vector 103 TcpVariants.receiver.tcp.conn-5 rcvAck:vector ETV
attr interpolationmode sample-hold
attr recordingmode vector
vector 104 TcpVariants.receiver.tcp.conn-5 tcpRcvPayloadBytes:vector ETV
attr interpolationmode sample-hold
attr recordingmode vector
vector 105 TcpVariants.receiver.tcp.conn-5 unacked:vector ETV
attr interpolationmode sample-hold
attr recordingmode vector
vector 106 TcpVariants.receiver.tcp.conn-5 dupAcks:vector ETV
attr interpolationmode sample-hold
attr recordingmode vector
vector 107 TcpVariants.receiver.app[0].thread_5 packetReceived:vector(packetBytes) ETV
attr interpolationmode none
attr recordingmode vector(packetBytes)
attr source packetReceived
attr title "packets received, packetBytes"
vector 108 TcpVariants.receiver.app[0].thread_5 endToEndDelay:vector ETV
attr interpolationmode none
attr recordingmode vector
attr source dataAge(packetReceived)
attr title "end-to-end delay"
attr unit s
vector 109 TcpVariants.receiver.app[0] packetReceived:vector(packetBytes) ETV
attr checkSignals false
attr interpolationmode none
attr recordingmode vector(packetBytes)
attr source packetReceived
attr title "packets received, packetBytes"
vector 110 TcpVariants.receiver.app[0] endToEndDelay:vector ETV
attr checkSignals false
attr interpolationmode none
attr recordingmode vector
attr source dataAge(packetReceived)
attr title "end-to-end delay"
attr unit s
vector 111 TcpVariants.receiver.eth[0].queue incomingDataRate:vector ETV
attr interpolationmode linear
attr recordingmode vector
attr source throughput(packetPushStarted)
attr title "incoming datarate"
attr unit bps
vector 112 TcpVariants.receiver.eth[0].queue outgoingDataRate:vector ETV
attr interpolationmode linear
attr recordingmode vector
attr source throughput(packetPulled)
attr title "outgoing datarate"
attr unit bps
vector 113 TcpVariants.router.eth[0].queue incomingDataRate:vector ETV
attr interpolationmode linear
attr recordingmode vector
attr source throughput(packetPushStarted)
attr title "incoming datarate"
attr unit bps
vector 114 TcpVariants.router.eth[0].queue outgoingDataRate:vector ETV
attr interpolationmode linear
attr recordingmode vector
attr source throughput(packetPulled)
attr title "outgoing datarate"
attr unit bps
vector 115 TcpVariants.sender.tcp.conn-3 rtt:vector ETV
attr interpolationmode sample-hold
attr recordingmode vector
vector 116 TcpVariants rtt:vector ETV
attr recordingmode vector
attr title "Round-Trip Time"
attr unit s
vector 117 TcpVariants.sender.tcp.conn-3 srtt:vector ETV
attr interpolationmode sample-hold
attr recordingmode vector
vector 118 TcpVariants.sender.tcp.conn-3 rttvar:vector ETV
attr interpolationmode sample-hold
attr recordingmode vector
vector 119 TcpVariants.sender.tcp.conn-3 rto:vector ETV
attr interpolationmode sample-hold
attr recordingmode vector
vector 120 TcpVariants.sender.tcp.conn-3 cwnd:vector ETV
attr interpolationmode sample-hold
attr recordingmode vector
vector 121 TcpVariants cwnd:vector ETV
attr recordingmode vector
attr title "Congestion Window Size"
attr unit bytes
vector 122 TcpVariants.sender.tcp.conn-3 ssthresh:vector ETV
attr interpolationmode sample-hold
attr recordingmode vector
vector 123 TcpVariants.sender.tcp.conn-3 dupAcks:vector ETV
attr interpolationmode sample-hold
attr recordingmode vector
vector 124 TcpVariants.sender.eth[0].queue incomingDataRate:vector ETV
attr interpolationmode linear
attr recordingmode vector
attr source throughput(packetPushStarted)
attr title "incoming datarate"
attr unit bps
vector 125 TcpVariants.sender.eth[0].queue outgoingDataRate:vector ETV
attr interpolationmode linear
attr recordingmode vector
attr source throughput(packetPulled)
attr title "outgoing datarate"
attr unit bps
vector 126 TcpVariants.router.eth[1].queue incomingDataRate:vector ETV
attr interpolationmode linear
attr recordingmode vector
attr source throughput(packetPushStarted)
attr title "incoming datarate"
attr unit bps
vector 127 TcpVariants.router.eth[1].queue outgoingDataRate:vector ETV
attr interpolationmode linear
attr recordingmode vector
attr source throughput(packetPulled)
attr title "outgoing datarate"
attr unit bps
0	0	0	0
0	0	0	0
0	0	0	0
0	0	0	0
0	0	0	0
0	10	0	0
0	38	0.02001152	0
0	112	0.08004608	0
0	118	0.08004608	1
0	121	0.0800528	0
0	175	0.12030848	0
0	176	0.12030848	1
0	178	0.12043152	0
0	237	0.16056416	0
0	238	0.16056416	1
0	241	0.1606872	0
0	249	0.1606872	1
0	250	0.1606872	2
0	252	0.16081024	1
0	254	0.16093328	0
0	361	0.20081984	0
0	362	0.20081984	1
0	365	0.20094288	0
0	373	0.20094288	1
0	374	0.20094288	2
0	377	0.20106592	1
0	385	0.20106592	2
0	386	0.20106592	3
0	389	0.20118896	2
0	397	0.20118896	3
0	398	0.20118896	4
0	400	0.201312	3
0	402	0.20143504	2
0	404	0.20155808	1
0	406	0.20168112	0
0	609	0.24107552	0
0	610	0.24107552	1
0	613	0.24119856	0
0	621	0.24119856	1
0	622	0.24119856	2
0	625	0.2413216	1
0	633	0.2413216	2
0	634	0.2413216	3
0	637	0.24144464	2
0	645	0.24144464	3
0	646	0.24144464	4
0	649	0.24156768	3
0	657	0.24156768	4
0	658	0.24156768	5
0	661	0.24169072	4
0	669	0.24169072	5
0	670	0.24169072	6
0	673	0.24181376	5
0	679	0.24181376	6
0	682	0.2419368	5
0	688	0.2419368	6
0	690	0.24205984	5
0	692	0.24218288	4
0	694	0.24230592	3
0	696	0.24242896	2
0	698	0.242552	1
0	700	0.24267504	0
0	1045	0.2813312	0
0	1054	0.28145424	0
0	1063	0.28157728	0
0	1072	0.28170032	0
0	1081	0.28182336	0
0	1090	0.2819464	0
0	1099	0.28206944	0
0	1108	0.28219248	0
0	1117	0.28231552	0
0	1126	0.28243856	0
0	1135	0.2825616	0
0	1144	0.28268464	0
0	1153	0.28280768	0
0	1162	0.28293072	0
0	1507	0.32158688	0
0	1516	0.32170992	0
0	1525	0.32183296	0
0	1534	0.321956	0
0	1543	0.32207904	0
0	1552	0.32220208	0
0	1561	0.32232512	0
0	1570	0.32244816	0
0	1579	0.3225712	0
0	1588	0.32269424	0
0	1597	0.32281728	0
0	1606	0.32294032	0
0	1615	0.32306336	0
0	1624	0.3231864	0
0	1969	0.36184256	0
0	1978	0.3619656	0
0	1987	0.36208864	0
0	1996	0.36221168	0
0	2005	0.36233472	0
0	2014	0.36245776	0
0	2023	0.3625808	0
0	2032	0.36270384	0
0	2041	0.36282688	0
0	2050	0.36294992	0
0	2059	0.36307296	0
0	2068	0.363196	0
0	2077	0.36331904	0
0	2086	0.36344208	0
0	2431	0.40209824	0
0	2440	0.40222128	0
0	2449	0.40234432	0
0	2458	0.40246736	0
0	2467	0.4025904	0
0	2476	0.40271344	0
0	2485	0.40283648	0
0	2494	0.40295952	0
0	2503	0.40308256	0
0	2512	0.4032056	0
0	2521	0.40332864	0
0	2530	0.40345168	0
0	2539	0.40357472	0
0	2548	0.40369776	0
0	2893	0.44235392	0
0	2902	0.44247696	0
0	2911	0.4426	0
0	2920	0.44272304	0
0	2929	0.44284608	0
0	2938	0.44296912	0
0	2947	0.44309216	0
0	2956	0.4432152	0
0	2965	0.44333824	0
0	2974	0.44346128	0
0	2983	0.44358432	0
0	2992	0.44370736	0
0	3001	0.4438304	0
0	3010	0.44395344	0
0	3355	0.4826096	0
0	3364	0.48273264	0
0	3373	0.48285568	0
0	3382	0.48297872	0
0	3391	0.48310176	0
0	3400	0.4832248	0
0	3409	0.48334784	0
0	3418	0.48347088	0
0	3427	0.48359392	0
0	3436	0.48371696	0
0	3445	0.48384	0
0	3454	0.48396304	0
0	3463	0.48408608	0
0	3472	0.48420912	0
0	3817	0.52286528	0
0	3826	0.52298832	0
0	3835	0.52311136	0
0	3844	0.5232344	0
0	3853	0.52335744	0
0	3862	0.52348048	0
0	3871	0.52360352	0
0	3880	0.52372656	0
0	3889	0.5238496	0
0	3898	0.52397264	0
0	3907	0.52409568	0
0	3916	0.52421872	0
0	3925	0.52434176	0
0	3934	0.5244648	0
0	4279	0.56312096	0
0	4288	0.563244	0
0	4297	0.56336704	0
0	4306	0.56349008	0
0	4315	0.56361312	0
0	4324	0.56373616	0
0	4333	0.5638592	0
0	4342	0.56398224	0
0	4351	0.56410528	0
0	4360	0.56422832	0
0	4369	0.56435136	0
0	4378	0.5644744	0
0	4387	0.56459744	0
0	4396	0.56472048	0
0	4741	0.60337664	0
0	4750	0.60349968	0
0	4759	0.60362272	0
0	4768	0.60374576	0
0	4777	0.6038688	0
0	4786	0.60399184	0
0	4795	0.60411488	0
0	4804	0.60423792	0
0	4813	0.60436096	0
0	4822	0.604484	0
0	4831	0.60460704	0
0	4840	0.60473008	0
0	4849	0.60485312	0
0	4858	0.60497616	0
0	5203	0.64363232	0
0	5212	0.64375536	0
0	5221	0.6438784	0
0	5230	0.64400144	0
0	5239	0.64412448	0
0	5248	0.64424752	0
0	5257	0.64437056	0
0	5266	0.6444936	0
0	5275	0.64461664	0
0	5284	0.64473968	0
0	5293	0.64486272	0
0	5302	0.64498576	0
0	5311	0.6451088	0
0	5320	0.64523184	0
0	5665	0.683888	0
0	5674	0.68401104	0
0	5683	0.68413408	0
0	5692	0.68425712	0
0	5701	0.68438016	0
0	5710	0.6845032	0
0	5719	0.68462624	0
0	5728	0.68474928	0
0	5737	0.68487232	0
0	5746	0.68499536	0
0	5755	0.6851184	0
0	5764	0.68524144	0
0	5773	0.68536448	0
0	5782	0.68548752	0
1	0	0	0
1	0	0	0
1	0	0	0
1	0	0	0
1	0	0	0
1	10	0	0
1	38	0.02001152	0
1	112	0.08004608	0
1	118	0.08004608	12144
1	121	0.0800528	0
1	175	0.12030848	0
1	176	0.12030848	12144
1	178	0.12043152	0
1	237	0.16056416	0
1	238	0.16056416	12144
1	241	0.1606872	0
1	249	0.1606872	12144
1	250	0.1606872	24288
1	252	0.16081024	12144
1	254	0.16093328	0
1	361	0.20081984	0
1	362	0.20081984	12144
1	365	0.20094288	0
1	373	0.20094288	12144
1	374	0.20094288	24288
1	377	0.20106592	12144
1	385	0.20106592	24288
1	386	0.20106592	36432
1	389	0.20118896	24288
1	397	0.20118896	36432
1	398	0.20118896	48576
1	400	0.201312	36432
1	402	0.20143504	24288
1	404	0.20155808	12144
1	406	0.20168112	0
1	609	0.24107552	0
1	610	0.24107552	12144
1	613	0.24119856	0
1	621	0.24119856	12144
1	622	0.24119856	24288
1	625	0.2413216	12144
1	633	0.2413216	24288
1	634	0.2413216	36432
1	637	0.24144464	24288
1	645	0.24144464	36432
1	646	0.24144464	48576
1	649	0.24156768	36432
1	657	0.24156768	48576
1	658	0.24156768	60720
1	661	0.24169072	48576
1	669	0.24169072	60720
1	670	0.24169072	72864
1	673	0.24181376	60720
1	679	0.24181376	72864
1	682	0.2419368	60720
1	688	0.2419368	72864
1	690	0.24205984	60720
1	692	0.24218288	48576
1	694	0.24230592	36432
1	696	0.24242896	24288
1	698	0.242552	12144
1	700	0.24267504	0
1	1045	0.2813312	0
1	1054	0.28145424	0
1	1063	0.28157728	0
1	1072	0.28170032	0
1	1081	0.28182336	0
1	1090	0.2819464	0
1	1099	0.28206944	0
1	1108	0.28219248	0
1	1117	0.28231552	0
1	1126	0.28243856	0
1	1135	0.2825616	0
1	1144	0.28268464	0
1	1153	0.28280768	0
1	1162	0.28293072	0
1	1507	0.32158688	0
1	1516	0.32170992	0
1	1525	0.32183296	0
1	1534	0.321956	0
1	1543	0.32207904	0
1	1552	0.32220208	0
1	1561	0.32232512	0
1	1570	0.32244816	0
1	1579	0.3225712	0
1	1588	0.32269424	0
1	1597	0.32281728	0
1	1606	0.32294032	0
1	1615	0.32306336	0
1	1624	0.3231864	0
1	1969	0.36184256	0
1	1978	0.3619656	0
1	1987	0.36208864	0
1	1996	0.36221168	0
1	2005	0.36233472	0
1	2014	0.36245776	0
1	2023	0.3625808	0
1	2032	0.36270384	0
1	2041	0.36282688	0
1	2050	0.36294992	0
1	2059	0.36307296	0
1	2068	0.363196	0
1	2077	0.36331904	0
1	2086	0.36344208	0
1	2431	0.40209824	0
1	2440	0.40222128	0
1	2449	0.40234432	0
1	2458	0.40246736	0
1	2467	0.4025904	0
1	2476	0.40271344	0
1	2485	0.40283648	0
1	2494	0.40295952	0
1	2503	0.40308256	0
1	2512	0.4032056	0
1	2521	0.40332864	0
1	2530	0.40345168	0
1	2539	0.40357472	0
1	2548	0.40369776	0
1	2893	0.44235392	0
1	2902	0.44247696	0
1	2911	0.4426	0
1	2920	0.44272304	0
1	2929	0.44284608	0
1	2938	0.44296912	0
1	2947	0.44309216	0
1	2956	0.4432152	0
1	2965	0.44333824	0
1	2974	0.44346128	0
1	2983	0.44358432	0
1	2992	0.44370736	0
1	3001	0.4438304	0
1	3010	0.44395344	0
1	3355	0.4826096	0
1	3364	0.48273264	0
1	3373	0.48285568	0
1	3382	0.48297872	0
1	3391	0.48310176	0
1	3400	0.4832248	0
1	3409	0.48334784	0
1	3418	0.48347088	0
1	3427	0.48359392	0
1	3436	0.48371696	0
1	3445	0.48384	0
1	3454	0.48396304	0
1	3463	0.48408608	0
1	3472	0.48420912	0
1	3817	0.52286528	0
1	3826	0.52298832	0
1	3835	0.52311136	0
1	3844	0.5232344	0
1	3853	0.52335744	0
1	3862	0.52348048	0
1	3871	0.52360352	0
1	3880	0.52372656	0
1	3889	0.5238496	0
1	3898	0.52397264	0
1	3907	0.52409568	0
1	3916	0.52421872	0
1	3925	0.52434176	0
1	3934	0.5244648	0
1	4279	0.56312096	0
1	4288	0.563244	0
1	4297	0.56336704	0
1	4306	0.56349008	0
1	4315	0.56361312	0
1	4324	0.56373616	0
1	4333	0.5638592	0
1	4342	0.56398224	0
1	4351	0.56410528	0
1	4360	0.56422832	0
1	4369	0.56435136	0
1	4378	0.5644744	0
1	4387	0.56459744	0
1	4396	0.56472048	0
1	4741	0.60337664	0
1	4750	0.60349968	0
1	4759	0.60362272	0
1	4768	0.60374576	0
1	4777	0.6038688	0
1	4786	0.60399184	0
1	4795	0.60411488	0
1	4804	0.60423792	0
1	4813	0.60436096	0
1	4822	0.604484	0
1	4831	0.60460704	0
1	4840	0.60473008	0
1	4849	0.60485312	0
1	4858	0.60497616	0
1	5203	0.64363232	0
1	5212	0.64375536	0
1	5221	0.6438784	0
1	5230	0.64400144	0
1	5239	0.64412448	0
1	5248	0.64424752	0
1	5257	0.64437056	0
1	5266	0.6444936	0
1	5275	0.64461664	0
1	5284	0.64473968	0
1	5293	0.64486272	0
1	5302	0.64498576	0
1	5311	0.6451088	0
1	5320	0.64523184	0
1	5665	0.683888	0
1	5674	0.68401104	0
1	5683	0.68413408	0
1	5692	0.68425712	0
1	5701	0.68438016	0
1	5710	0.6845032	0
1	5719	0.68462624	0
1	5728	0.68474928	0
1	5737	0.68487232	0
1	5746	0.68499536	0
1	5755	0.6851184	0
1	5764	0.68524144	0
1	5773	0.68536448	0
1	5782	0.68548752	0
2	0	0	0
3	0	0	0
4	0	0	0
5	0	0	0
5	0	0	0
5	0	0	0
5	0	0	0
5	0	0	0
5	24	0.01000576	0
5	94	0.07004032	0
5	164	0.11030272	0
5	219	0.1505584	0
5	226	0.15068144	0
5	329	0.19081408	0
5	336	0.19093712	0
5	343	0.19106016	0
5	350	0.1911832	0
5	549	0.23106976	0
5	556	0.2311928	0
5	563	0.23131584	0
5	570	0.23143888	0
5	577	0.23156192	0
5	584	0.23168496	0
5	591	0.231808	0
5	598	0.23193104	0
5	945	0.27132544	0
5	952	0.27144848	0
5	959	0.27157152	0
5	966	0.27169456	0
5	973	0.2718176	0
5	980	0.27194064	0
5	987	0.27206368	0
5	994	0.27218672	0
5	1001	0.27230976	0
5	1008	0.2724328	0
5	1015	0.27255584	0
5	1022	0.27267888	0
5	1029	0.27280192	0
5	1036	0.27292496	0
5	1407	0.31158112	0
5	1414	0.31170416	0
5	1421	0.3118272	0
5	1428	0.31195024	0
5	1435	0.31207328	0
5	1442	0.31219632	0
5	1449	0.31231936	0
5	1456	0.3124424	0
5	1463	0.31256544	0
5	1470	0.31268848	0
5	1477	0.31281152	0
5	1484	0.31293456	0
5	1491	0.3130576	0
5	1498	0.31318064	0
5	1869	0.3518368	0
5	1876	0.35195984	0
5	1883	0.35208288	0
5	1890	0.35220592	0
5	1897	0.35232896	0
5	1904	0.352452	0
5	1911	0.35257504	0
5	1918	0.35269808	0
5	1925	0.35282112	0
5	1932	0.35294416	0
5	1939	0.3530672	0
5	1946	0.35319024	0
5	1953	0.35331328	0
5	1960	0.35343632	0
5	2331	0.39209248	0
5	2338	0.39221552	0
5	2345	0.39233856	0
5	2352	0.3924616	0
5	2359	0.39258464	0
5	2366	0.39270768	0
5	2373	0.39283072	0
5	2380	0.39295376	0
5	2387	0.3930768	0
5	2394	0.39319984	0
5	2401	0.39332288	0
5	2408	0.39344592	0
5	2415	0.39356896	0
5	2422	0.393692	0
5	2793	0.43234816	0
5	2800	0.4324712	0
5	2807	0.43259424	0
5	2814	0.43271728	0
5	2821	0.43284032	0
5	2828	0.43296336	0
5	2835	0.4330864	0
5	2842	0.43320944	0
5	2849	0.43333248	0
5	2856	0.43345552	0
5	2863	0.43357856	0
5	2870	0.4337016	0
5	2877	0.43382464	0
5	2884	0.43394768	0
5	3255	0.47260384	0
5	3262	0.47272688	0
5	3269	0.47284992	0
5	3276	0.47297296	0
5	3283	0.473096	0
5	3290	0.47321904	0
5	3297	0.47334208	0
5	3304	0.47346512	0
5	3311	0.47358816	0
5	3318	0.4737112	0
5	3325	0.47383424	0
5	3332	0.47395728	0
5	3339	0.47408032	0
5	3346	0.47420336	0
5	3717	0.51285952	0
5	3724	0.51298256	0
5	3731	0.5131056	0
5	3738	0.51322864	0
5	3745	0.51335168	0
5	3752	0.51347472	0
5	3759	0.51359776	0
5	3766	0.5137208	0
5	3773	0.51384384	0
5	3780	0.51396688	0
5	3787	0.51408992	0
5	3794	0.51421296	0
5	3801	0.514336	0
5	3808	0.51445904	0
5	4179	0.5531152	0
5	4186	0.55323824	0
5	4193	0.55336128	0
5	4200	0.55348432	0
5	4207	0.55360736	0
5	4214	0.5537304	0
5	4221	0.55385344	0
5	4228	0.55397648	0
5	4235	0.55409952	0
5	4242	0.55422256	0
5	4249	0.5543456	0
5	4256	0.55446864	0
5	4263	0.55459168	0
5	4270	0.55471472	0
5	4641	0.59337088	0
5	4648	0.59349392	0
5	4655	0.59361696	0
5	4662	0.59374	0
5	4669	0.59386304	0
5	4676	0.59398608	0
5	4683	0.59410912	0
5	4690	0.59423216	0
5	4697	0.5943552	0
5	4704	0.59447824	0
5	4711	0.59460128	0
5	4718	0.59472432	0
5	4725	0.59484736	0
5	4732	0.5949704	0
5	5103	0.63362656	0
5	5110	0.6337496	0
5	5117	0.63387264	0
5	5124	0.63399568	0
5	5131	0.63411872	0
5	5138	0.63424176	0
5	5145	0.6343648	0
5	5152	0.63448784	0
5	5159	0.63461088	0
5	5166	0.63473392	0
5	5173	0.63485696	0
5	5180	0.63498	0
5	5187	0.63510304	0
5	5194	0.63522608	0
5	5565	0.67388224	0
5	5572	0.67400528	0
5	5579	0.67412832	0
5	5586	0.67425136	0
5	5593	0.6743744	0
5	5600	0.67449744	0
5	5607	0.67462048	0
5	5614	0.67474352	0
5	5621	0.67486656	0
5	5628	0.6749896	0
5	5635	0.67511264	0
5	5642	0.67523568	0
5	5649	0.67535872	0
5	5656	0.67548176	0
6	0	0	0
6	0	0	0
6	0	0	0
6	0	0	0
6	0	0	0
6	24	0.01000576	0
6	94	0.07004032	0
6	164	0.11030272	0
6	219	0.1505584	0
6	226	0.15068144	0
6	329	0.19081408	0
6	336	0.19093712	0
6	343	0.19106016	0
6	350	0.1911832	0
6	549	0.23106976	0
6	556	0.2311928	0
6	563	0.23131584	0
6	570	0.23143888	0
6	577	0.23156192	0
6	584	0.23168496	0
6	591	0.231808	0
6	598	0.23193104	0
6	945	0.27132544	0
6	952	0.27144848	0
6	959	0.27157152	0
6	966	0.27169456	0
6	973	0.2718176	0
6	980	0.27194064	0
6	987	0.27206368	0
6	994	0.27218672	0
6	1001	0.27230976	0
6	1008	0.2724328	0
6	1015	0.27255584	0
6	1022	0.27267888	0
6	1029	0.27280192	0
6	1036	0.27292496	0
6	1407	0.31158112	0
6	1414	0.31170416	0
6	1421	0.3118272	0
6	1428	0.31195024	0
6	1435	0.31207328	0
6	1442	0.31219632	0
6	1449	0.31231936	0
6	1456	0.3124424	0
6	1463	0.31256544	0
6	1470	0.31268848	0
6	1477	0.31281152	0
6	1484	0.31293456	0
6	1491	0.3130576	0
6	1498	0.31318064	0
6	1869	0.3518368	0
6	1876	0.35195984	0
6	1883	0.35208288	0
6	1890	0.35220592	0
6	1897	0.35232896	0
6	1904	0.352452	0
6	1911	0.35257504	0
6	1918	0.35269808	0
6	1925	0.35282112	0
6	1932	0.35294416	0
6	1939	0.3530672	0
6	1946	0.35319024	0
6	1953	0.35331328	0
6	1960	0.35343632	0
6	2331	0.39209248	0
6	2338	0.39221552	0
6	2345	0.39233856	0
6	2352	0.3924616	0
6	2359	0.39258464	0
6	2366	0.39270768	0
6	2373	0.39283072	0
6	2380	0.39295376	0
6	2387	0.3930768	0
6	2394	0.39319984	0
6	2401	0.39332288	0
6	2408	0.39344592	0
6	2415	0.39356896	0
6	2422	0.393692	0
6	2793	0.43234816	0
6	2800	0.4324712	0
6	2807	0.43259424	0
6	2814	0.43271728	0
6	2821	0.43284032	0
6	2828	0.43296336	0
6	2835	0.4330864	0
6	2842	0.43320944	0
6	2849	0.43333248	0
6	2856	0.43345552	0
6	2863	0.43357856	0
6	2870	0.4337016	0
6	2877	0.43382464	0
6	2884	0.43394768	0
6	3255	0.47260384	0
6	3262	0.47272688	0
6	3269	0.47284992	0
6	3276	0.47297296	0
6	3283	0.473096	0
6	3290	0.47321904	0
6	3297	0.47334208	0
6	3304	0.47346512	0
6	3311	0.47358816	0
6	3318	0.4737112	0
6	3325	0.47383424	0
6	3332	0.47395728	0
6	3339	0.47408032	0
6	3346	0.47420336	0
6	3717	0.51285952	0
6	3724	0.51298256	0
6	3731	0.5131056	0
6	3738	0.51322864	0
6	3745	0.51335168	0
6	3752	0.51347472	0
6	3759	0.51359776	0
6	3766	0.5137208	0
6	3773	0.51384384	0
6	3780	0.51396688	0
6	3787	0.51408992	0
6	3794	0.51421296	0
6	3801	0.514336	0
6	3808	0.51445904	0
6	4179	0.5531152	0
6	4186	0.55323824	0
6	4193	0.55336128	0
6	4200	0.55348432	0
6	4207	0.55360736	0
6	4214	0.5537304	0
6	4221	0.55385344	0
6	4228	0.55397648	0
6	4235	0.55409952	0
6	4242	0.55422256	0
6	4249	0.5543456	0
6	4256	0.55446864	0
6	4263	0.55459168	0
6	4270	0.55471472	0
6	4641	0.59337088	0
6	4648	0.59349392	0
6	4655	0.59361696	0
6	4662	0.59374	0
6	4669	0.59386304	0
6	4676	0.59398608	0
6	4683	0.59410912	0
6	4690	0.59423216	0
6	4697	0.5943552	0
6	4704	0.59447824	0
6	4711	0.59460128	0
6	4718	0.59472432	0
6	4725	0.59484736	0
6	4732	0.5949704	0
6	5103	0.63362656	0
6	5110	0.6337496	0
6	5117	0.63387264	0
6	5124	0.63399568	0
6	5131	0.63411872	0
6	5138	0.63424176	0
6	5145	0.6343648	0
6	5152	0.63448784	0
6	5159	0.63461088	0
6	5166	0.63473392	0
6	5173	0.63485696	0
6	5180	0.63498	0
6	5187	0.63510304	0
6	5194	0.63522608	0
6	5565	0.67388224	0
6	5572	0.67400528	0
6	5579	0.67412832	0
6	5586	0.67425136	0
6	5593	0.6743744	0
6	5600	0.67449744	0
6	5607	0.67462048	0
6	5614	0.67474352	0
6	5621	0.67486656	0
6	5628	0.6749896	0
6	5635	0.67511264	0
6	5642	0.67523568	0
6	5649	0.67535872	0
6	5656	0.67548176	0
7	0	0	0
7	0	0	0
7	0	0	0
7	0	0	0
7	0	0	0
7	51	0.03001728	0
7	66	0.0500288	0
7	67	0.0500288	1
7	69	0.05003552	0
7	133	0.09005184	0
7	140	0.09017488	0
7	185	0.13043056	0
7	192	0.1305536	0
7	261	0.17068624	0
7	268	0.17080928	0
7	275	0.17093232	0
7	282	0.17105536	0
7	413	0.21094192	0
7	420	0.21106496	0
7	427	0.211188	0
7	434	0.21131104	0
7	441	0.21143408	0
7	448	0.21155712	0
7	455	0.21168016	0
7	462	0.2118032	0
7	707	0.2511976	0
7	714	0.25132064	0
7	721	0.25144368	0
7	728	0.25156672	0
7	735	0.25168976	0
7	742	0.2518128	0
7	749	0.25193584	0
7	756	0.25205888	0
7	763	0.25218192	0
7	770	0.25230496	0
7	777	0.252428	0
7	784	0.25255104	0
7	791	0.25267408	0
7	798	0.25279712	0
7	1169	0.29145328	0
7	1176	0.29157632	0
7	1183	0.29169936	0
7	1190	0.2918224	0
7	1197	0.29194544	0
7	1204	0.29206848	0
7	1211	0.29219152	0
7	1218	0.29231456	0
7	1225	0.2924376	0
7	1232	0.29256064	0
7	1239	0.29268368	0
7	1246	0.29280672	0
7	1253	0.29292976	0
7	1260	0.2930528	0
7	1631	0.33170896	0
7	1638	0.331832	0
7	1645	0.33195504	0
7	1652	0.33207808	0
7	1659	0.33220112	0
7	1666	0.33232416	0
7	1673	0.3324472	0
7	1680	0.33257024	0
7	1687	0.33269328	0
7	1694	0.33281632	0
7	1701	0.33293936	0
7	1708	0.3330624	0
7	1715	0.33318544	0
7	1722	0.33330848	0
7	2093	0.37196464	0
7	2100	0.37208768	0
7	2107	0.37221072	0
7	2114	0.37233376	0
7	2121	0.3724568	0
7	2128	0.37257984	0
7	2135	0.37270288	0
7	2142	0.37282592	0
7	2149	0.37294896	0
7	2156	0.373072	0
7	2163	0.37319504	0
7	2170	0.37331808	0
7	2177	0.37344112	0
7	2184	0.37356416	0
7	2555	0.41222032	0
7	2562	0.41234336	0
7	2569	0.4124664	0
7	2576	0.41258944	0
7	2583	0.41271248	0
7	2590	0.41283552	0
7	2597	0.41295856	0
7	2604	0.4130816	0
7	2611	0.41320464	0
7	2618	0.41332768	0
7	2625	0.41345072	0
7	2632	0.41357376	0
7	2639	0.4136968	0
7	2646	0.41381984	0
7	3017	0.452476	0
7	3024	0.45259904	0
7	3031	0.45272208	0
7	3038	0.45284512	0
7	3045	0.45296816	0
7	3052	0.4530912	0
7	3059	0.45321424	0
7	3066	0.45333728	0
7	3073	0.45346032	0
7	3080	0.45358336	0
7	3087	0.4537064	0
7	3094	0.45382944	0
7	3101	0.45395248	0
7	3108	0.45407552	0
7	3479	0.49273168	0
7	3486	0.49285472	0
7	3493	0.49297776	0
7	3500	0.4931008	0
7	3507	0.49322384	0
7	3514	0.49334688	0
7	3521	0.49346992	0
7	3528	0.49359296	0
7	3535	0.493716	0
7	3542	0.49383904	0
7	3549	0.49396208	0
7	3556	0.49408512	0
7	3563	0.49420816	0
7	3570	0.4943312	0
7	3941	0.53298736	0
7	3948	0.5331104	0
7	3955	0.53323344	0
7	3962	0.53335648	0
7	3969	0.53347952	0
7	3976	0.53360256	0
7	3983	0.5337256	0
7	3990	0.53384864	0
7	3997	0.53397168	0
7	4004	0.53409472	0
7	4011	0.53421776	0
7	4018	0.5343408	0
7	4025	0.53446384	0
7	4032	0.53458688	0
7	4403	0.57324304	0
7	4410	0.57336608	0
7	4417	0.57348912	0
7	4424	0.57361216	0
7	4431	0.5737352	0
7	4438	0.57385824	0
7	4445	0.57398128	0
7	4452	0.57410432	0
7	4459	0.57422736	0
7	4466	0.5743504	0
7	4473	0.57447344	0
7	4480	0.57459648	0
7	4487	0.57471952	0
7	4494	0.57484256	0
7	4865	0.61349872	0
7	4872	0.61362176	0
7	4879	0.6137448	0
7	4886	0.61386784	0
7	4893	0.61399088	0
7	4900	0.61411392	0
7	4907	0.61423696	0
7	4914	0.61436	0
7	4921	0.61448304	0
7	4928	0.61460608	0
7	4935	0.61472912	0
7	4942	0.61485216	0
7	4949	0.6149752	0
7	4956	0.61509824	0
7	5327	0.6537544	0
7	5334	0.65387744	0
7	5341	0.65400048	0
7	5348	0.65412352	0
7	5355	0.65424656	0
7	5362	0.6543696	0
7	5369	0.65449264	0
7	5376	0.65461568	0
7	5383	0.65473872	0
7	5390	0.65486176	0
7	5397	0.6549848	0
7	5404	0.65510784	0
7	5411	0.65523088	0
7	5418	0.65535392	0
8	0	0	0
8	0	0	0
8	0	0	0
8	0	0	0
8	0	0	0
8	51	0.03001728	0
8	66	0.0500288	0
8	67	0.0500288	496
8	69	0.05003552	0
8	133	0.09005184	0
8	140	0.09017488	0
8	185	0.13043056	0
8	192	0.1305536	0
8	261	0.17068624	0
8	268	0.17080928	0
8	275	0.17093232	0
8	282	0.17105536	0
8	413	0.21094192	0
8	420	0.21106496	0
8	427	0.211188	0
8	434	0.21131104	0
8	441	0.21143408	0
8	448	0.21155712	0
8	455	0.21168016	0
8	462	0.2118032	0
8	707	0.2511976	0
8	714	0.25132064	0
8	721	0.25144368	0
8	728	0.25156672	0
8	735	0.25168976	0
8	742	0.2518128	0
8	749	0.25193584	0
8	756	0.25205888	0
8	763	0.25218192	0
8	770	0.25230496	0
8	777	0.252428	0
8	784	0.25255104	0
8	791	0.25267408	0
8	798	0.25279712	0
8	1169	0.29145328	0
8	1176	0.29157632	0
8	1183	0.29169936	0
8	1190	0.2918224	0
8	1197	0.29194544	0
8	1204	0.29206848	0
8	1211	0.29219152	0
8	1218	0.29231456	0
8	1225	0.2924376	0
8	1232	0.29256064	0
8	1239	0.29268368	0
8	1246	0.29280672	0
8	1253	0.29292976	0
8	1260	0.2930528	0
8	1631	0.33170896	0
8	1638	0.331832	0
8	1645	0.33195504	0
8	1652	0.33207808	0
8	1659	0.33220112	0
8	1666	0.33232416	0
8	1673	0.3324472	0
8	1680	0.33257024	0
8	1687	0.33269328	0
8	1694	0.33281632	0
8	1701	0.33293936	0
8	1708	0.3330624	0
8	1715	0.33318544	0
8	1722	0.33330848	0
8	2093	0.37196464	0
8	2100	0.37208768	0
8	2107	0.37221072	0
8	2114	0.37233376	0
8	2121	0.3724568	0
8	2128	0.37257984	0
8	2135	0.37270288	0
8	2142	0.37282592	0
8	2149	0.37294896	0
8	2156	0.373072	0
8	2163	0.37319504	0
8	2170	0.37331808	0
8	2177	0.37344112	0
8	2184	0.37356416	0
8	2555	0.41222032	0
8	2562	0.41234336	0
8	2569	0.4124664	0
8	2576	0.41258944	0
8	2583	0.41271248	0
8	2590	0.41283552	0
8	2597	0.41295856	0
8	2604	0.4130816	0
8	2611	0.41320464	0
8	2618	0.41332768	0
8	2625	0.41345072	0
8	2632	0.41357376	0
8	2639	0.4136968	0
8	2646	0.41381984	0
8	3017	0.452476	0
8	3024	0.45259904	0
8	3031	0.45272208	0
8	3038	0.45284512	0
8	3045	0.45296816	0
8	3052	0.4530912	0
8	3059	0.45321424	0
8	3066	0.45333728	0
8	3073	0.45346032	0
8	3080	0.45358336	0
8	3087	0.4537064	0
8	3094	0.45382944	0
8	3101	0.45395248	0
8	3108	0.45407552	0
8	3479	0.49273168	0
8	3486	0.49285472	0
8	3493	0.49297776	0
8	3500	0.4931008	0
8	3507	0.49322384	0
8	3514	0.49334688	0
8	3521	0.49346992	0
8	3528	0.49359296	0
8	3535	0.493716	0
8	3542	0.49383904	0
8	3549	0.49396208	0
8	3556	0.49408512	0
8	3563	0.49420816	0
8	3570	0.4943312	0
8	3941	0.53298736	0
8	3948	0.5331104	0
8	3955	0.53323344	0
8	3962	0.53335648	0
8	3969	0.53347952	0
8	3976	0.53360256	0
8	3983	0.5337256	0
8	3990	0.53384864	0
8	3997	0.53397168	0
8	4004	0.53409472	0
8	4011	0.53421776	0
8	4018	0.5343408	0
8	4025	0.53446384	0
8	4032	0.53458688	0
8	4403	0.57324304	0
8	4410	0.57336608	0
8	4417	0.57348912	0
8	4424	0.57361216	0
8	4431	0.5737352	0
8	4438	0.57385824	0
8	4445	0.57398128	0
8	4452	0.57410432	0
8	4459	0.57422736	0
8	4466	0.5743504	0
8	4473	0.57447344	0
8	4480	0.57459648	0
8	4487	0.57471952	0
8	4494	0.57484256	0
8	4865	0.61349872	0
8	4872	0.61362176	0
8	4879	0.6137448	0
8	4886	0.61386784	0
8	4893	0.61399088	0
8	4900	0.61411392	0
8	4907	0.61423696	0
8	4914	0.61436	0
8	4921	0.61448304	0
8	4928	0.61460608	0
8	4935	0.61472912	0
8	4942	0.61485216	0
8	4949	0.6149752	0
8	4956	0.61509824	0
8	5327	0.6537544	0
8	5334	0.65387744	0
8	5341	0.65400048	0
8	5348	0.65412352	0
8	5355	0.65424656	0
8	5362	0.6543696	0
8	5369	0.65449264	0
8	5376	0.65461568	0
8	5383	0.65473872	0
8	5390	0.65486176	0
8	5397	0.6549848	0
8	5404	0.65510784	0
8	5411	0.65523088	0
8	5418	0.65535392	0
9	0	0	0
9	0	0	0
9	0	0	0
9	0	0	0
9	0	0	0
9	25	0.01000576	0
9	101	0.07004704	0
10	0	0	0
10	0	0	0
10	0	0	0
10	0	0	0
10	0	0	0
10	25	0.01000576	0
10	101	0.07004704	0
11	0	0	0
11	0	0	0
11	0	0	0
11	0	0	0
11	0	0	0
11	58	0.04002304	0
11	78	0.06003456	0
11	87	0.06004128	0
11	157	0.10029696	0
11	202	0.14055264	0
11	212	0.14067568	0
11	292	0.18080832	0
11	302	0.18093136	0
11	312	0.1810544	0
11	322	0.18117744	0
11	472	0.221064	0
11	482	0.22118704	0
11	492	0.22131008	0
11	502	0.22143312	0
11	512	0.22155616	0
11	522	0.2216792	0
11	532	0.22180224	0
11	542	0.22192528	0
11	808	0.26131968	0
11	818	0.26144272	0
11	828	0.26156576	0
11	838	0.2616888	0
11	848	0.26181184	0
11	858	0.26193488	0
11	868	0.26205792	0
11	878	0.26218096	0
11	888	0.262304	0
11	898	0.26242704	0
11	908	0.26255008	0
11	918	0.26267312	0
11	928	0.26279616	0
11	938	0.2629192	0
11	1270	0.30157536	0
11	1280	0.3016984	0
11	1290	0.30182144	0
11	1300	0.30194448	0
11	1310	0.30206752	0
11	1320	0.30219056	0
11	1330	0.3023136	0
11	1340	0.30243664	0
11	1350	0.30255968	0
11	1360	0.30268272	0
11	1370	0.30280576	0
11	1380	0.3029288	0
11	1390	0.30305184	0
11	1400	0.30317488	0
11	1732	0.34183104	0
11	1742	0.34195408	0
11	1752	0.34207712	0
11	1762	0.34220016	0
11	1772	0.3423232	0
11	1782	0.34244624	0
11	1792	0.34256928	0
11	1802	0.34269232	0
11	1812	0.34281536	0
11	1822	0.3429384	0
11	1832	0.34306144	0
11	1842	0.34318448	0
11	1852	0.34330752	0
11	1862	0.34343056	0
11	2194	0.38208672	0
11	2204	0.38220976	0
11	2214	0.3823328	0
11	2224	0.38245584	0
11	2234	0.38257888	0
11	2244	0.38270192	0
11	2254	0.38282496	0
11	2264	0.382948	0
11	2274	0.38307104	0
11	2284	0.38319408	0
11	2294	0.38331712	0
11	2304	0.38344016	0
11	2314	0.3835632	0
11	2324	0.38368624	0
11	2656	0.4223424	0
11	2666	0.42246544	0
11	2676	0.42258848	0
11	2686	0.42271152	0
11	2696	0.42283456	0
11	2706	0.4229576	0
11	2716	0.42308064	0
11	2726	0.42320368	0
11	2736	0.42332672	0
11	2746	0.42344976	0
11	2756	0.4235728	0
11	2766	0.42369584	0
11	2776	0.42381888	0
11	2786	0.42394192	0
11	3118	0.46259808	0
11	3128	0.46272112	0
11	3138	0.46284416	0
11	3148	0.4629672	0
11	3158	0.46309024	0
11	3168	0.46321328	0
11	3178	0.46333632	0
11	3188	0.46345936	0
11	3198	0.4635824	0
11	3208	0.46370544	0
11	3218	0.46382848	0
11	3228	0.46395152	0
11	3238	0.46407456	0
11	3248	0.4641976	0
11	3580	0.50285376	0
11	3590	0.5029768	0
11	3600	0.50309984	0
11	3610	0.50322288	0
11	3620	0.50334592	0
11	3630	0.50346896	0
11	3640	0.503592	0
11	3650	0.50371504	0
11	3660	0.50383808	0
11	3670	0.50396112	0
11	3680	0.50408416	0
11	3690	0.5042072	0
11	3700	0.50433024	0
11	3710	0.50445328	0
11	4042	0.54310944	0
11	4052	0.54323248	0
11	4062	0.54335552	0
11	4072	0.54347856	0
11	4082	0.5436016	0
11	4092	0.54372464	0
11	4102	0.54384768	0
11	4112	0.54397072	0
11	4122	0.54409376	0
11	4132	0.5442168	0
11	4142	0.54433984	0
11	4152	0.54446288	0
11	4162	0.54458592	0
11	4172	0.54470896	0
11	4504	0.58336512	0
11	4514	0.58348816	0
11	4524	0.5836112	0
11	4534	0.58373424	0
11	4544	0.58385728	0
11	4554	0.58398032	0
11	4564	0.58410336	0
11	4574	0.5842264	0
11	4584	0.58434944	0
11	4594	0.58447248	0
11	4604	0.58459552	0
11	4614	0.58471856	0
11	4624	0.5848416	0
11	4634	0.58496464	0
11	4966	0.6236208	0
11	4976	0.62374384	0
11	4986	0.62386688	0
11	4996	0.62398992	0
11	5006	0.62411296	0
11	5016	0.624236	0
11	5026	0.62435904	0
11	5036	0.62448208	0
11	5046	0.62460512	0
11	5056	0.62472816	0
11	5066	0.6248512	0
11	5076	0.62497424	0
11	5086	0.62509728	0
11	5096	0.62522032	0
11	5428	0.66387648	0
11	5438	0.66399952	0
11	5448	0.66412256	0
11	5458	0.6642456	0
11	5468	0.66436864	0
11	5478	0.66449168	0
11	5488	0.66461472	0
11	5498	0.66473776	0
11	5508	0.6648608	0
11	5518	0.66498384	0
11	5528	0.66510688	0
11	5538	0.66522992	0
11	5548	0.66535296	0
11	5558	0.665476	0
12	0	0	0
12	0	0	0
12	0	0	0
12	0	0	0
12	0	0	0
12	58	0.04002304	0
12	78	0.06003456	0
12	87	0.06004128	0
12	157	0.10029696	0
12	202	0.14055264	0
12	212	0.14067568	0
12	292	0.18080832	0
12	302	0.18093136	0
12	312	0.1810544	0
12	322	0.18117744	0
12	472	0.221064	0
12	482	0.22118704	0
12	492	0.22131008	0
12	502	0.22143312	0
12	512	0.22155616	0
12	522	0.2216792	0
12	532	0.22180224	0
12	542	0.22192528	0
12	808	0.26131968	0
12	818	0.26144272	0
12	828	0.26156576	0
12	838	0.2616888	0
12	848	0.26181184	0
12	858	0.26193488	0
12	868	0.26205792	0
12	878	0.26218096	0
12	888	0.262304	0
12	898	0.26242704	0
12	908	0.26255008	0
12	918	0.26267312	0
12	928	0.26279616	0
12	938	0.2629192	0
12	1270	0.30157536	0
12	1280	0.3016984	0
12	1290	0.30182144	0
12	1300	0.30194448	0
12	1310	0.30206752	0
12	1320	0.30219056	0
12	1330	0.3023136	0
12	1340	0.30243664	0
12	1350	0.30255968	0
12	1360	0.30268272	0
12	1370	0.30280576	0
12	1380	0.3029288	0
12	1390	0.30305184	0
12	1400	0.30317488	0
12	1732	0.34183104	0
12	1742	0.34195408	0
12	1752	0.34207712	0
12	1762	0.34220016	0
12	1772	0.3423232	0
12	1782	0.34244624	0
12	1792	0.34256928	0
12	1802	0.34269232	0
12	1812	0.34281536	0
12	1822	0.3429384	0
12	1832	0.34306144	0
12	1842	0.34318448	0
12	1852	0.34330752	0
12	1862	0.34343056	0
12	2194	0.38208672	0
12	2204	0.38220976	0
12	2214	0.3823328	0
12	2224	0.38245584	0
12	2234	0.38257888	0
12	2244	0.38270192	0
12	2254	0.38282496	0
12	2264	0.382948	0
12	2274	0.38307104	0
12	2284	0.38319408	0
12	2294	0.38331712	0
12	2304	0.38344016	0
12	2314	0.3835632	0
12	2324	0.38368624	0
12	2656	0.4223424	0
12	2666	0.42246544	0
12	2676	0.42258848	0
12	2686	0.42271152	0
12	2696	0.42283456	0
12	2706	0.4229576	0
12	2716	0.42308064	0
12	2726	0.42320368	0
12	2736	0.42332672	0
12	2746	0.42344976	0
12	2756	0.4235728	0
12	2766	0.42369584	0
12	2776	0.42381888	0
12	2786	0.42394192	0
12	3118	0.46259808	0
12	3128	0.46272112	0
12	3138	0.46284416	0
12	3148	0.4629672	0
12	3158	0.46309024	0
12	3168	0.46321328	0
12	3178	0.46333632	0
12	3188	0.46345936	0
12	3198	0.4635824	0
12	3208	0.46370544	0
12	3218	0.46382848	0
12	3228	0.46395152	0
12	3238	0.46407456	0
12	3248	0.4641976	0
12	3580	0.50285376	0
12	3590	0.5029768	0
12	3600	0.50309984	0
12	3610	0.50322288	0
12	3620	0.50334592	0
12	3630	0.50346896	0
12	3640	0.503592	0
12	3650	0.50371504	0
12	3660	0.50383808	0
12	3670	0.50396112	0
12	3680	0.50408416	0
12	3690	0.5042072	0
12	3700	0.50433024	0
12	3710	0.50445328	0
12	4042	0.54310944	0
12	4052	0.54323248	0
12	4062	0.54335552	0
12	4072	0.54347856	0
12	4082	0.5436016	0
12	4092	0.54372464	0
12	4102	0.54384768	0
12	4112	0.54397072	0
12	4122	0.54409376	0
12	4132	0.5442168	0
12	4142	0.54433984	0
12	4152	0.54446288	0
12	4162	0.54458592	0
12	4172	0.54470896	0
12	4504	0.58336512	0
12	4514	0.58348816	0
12	4524	0.5836112	0
12	4534	0.58373424	0
12	4544	0.58385728	0
12	4554	0.58398032	0
12	4564	0.58410336	0
12	4574	0.5842264	0
12	4584	0.58434944	0
12	4594	0.58447248	0
12	4604	0.58459552	0
12	4614	0.58471856	0
12	4624	0.5848416	0
12	4634	0.58496464	0
12	4966	0.6236208	0
12	4976	0.62374384	0
12	4986	0.62386688	0
12	4996	0.62398992	0
12	5006	0.62411296	0
12	5016	0.624236	0
12	5026	0.62435904	0
12	5036	0.62448208	0
12	5046	0.62460512	0
12	5056	0.62472816	0
12	5066	0.6248512	0
12	5076	0.62497424	0
12	5086	0.62509728	0
12	5096	0.62522032	0
12	5428	0.66387648	0
12	5438	0.66399952	0
12	5448	0.66412256	0
12	5458	0.6642456	0
12	5468	0.66436864	0
12	5478	0.66449168	0
12	5488	0.66461472	0
12	5498	0.66473776	0
12	5508	0.6648608	0
12	5518	0.66498384	0
12	5528	0.66510688	0
12	5538	0.66522992	0
12	5548	0.66535296	0
12	5558	0.665476	0
13	0	0	0
14	0	0	0
15	0	0	0
16	0	0	0
16	0	0	0
16	0	0	0
16	0	0	0
16	0	0	0
16	11	0	0
16	39	0.02001152	0
17	0	0	0
17	0	0	0
17	0	0	0
17	0	0	0
17	0	0	0
17	11	0	0
17	39	0.02001152	0
18	0	0	0
19	0	0	0
20	0	0	0
21	4	0	0
21	107	0.08004608	0
21	113	0.08004608	0
21	170	0.12030848	0
21	170	0.12030848	0
21	232	0.16056416	0
21	232	0.16056416	0
21	244	0.1606872	0
21	244	0.1606872	0
21	356	0.20081984	0
21	356	0.20081984	0
21	368	0.20094288	0
21	368	0.20094288	0
21	380	0.20106592	0
21	380	0.20106592	0
21	392	0.20118896	0
21	392	0.20118896	0
21	604	0.24107552	0
21	604	0.24107552	0
21	616	0.24119856	0
21	616	0.24119856	0
21	628	0.2413216	0
21	628	0.2413216	0
21	640	0.24144464	0
21	640	0.24144464	0
21	652	0.24156768	0
21	652	0.24156768	0
21	664	0.24169072	0
21	664	0.24169072	0
21	676	0.24181376	0
21	685	0.2419368	0
21	1042	0.2813312	0
21	1051	0.28145424	0
21	1060	0.28157728	0
21	1069	0.28170032	0
21	1078	0.28182336	0
21	1087	0.2819464	0
21	1096	0.28206944	0
21	1105	0.28219248	0
21	1114	0.28231552	0
21	1123	0.28243856	0
21	1132	0.2825616	0
21	1141	0.28268464	0
21	1150	0.28280768	0
21	1159	0.28293072	0
21	1504	0.32158688	0
21	1513	0.32170992	0
21	1522	0.32183296	0
21	1531	0.321956	0
21	1540	0.32207904	0
21	1549	0.32220208	0
21	1558	0.32232512	0
21	1567	0.32244816	0
21	1576	0.3225712	0
21	1585	0.32269424	0
21	1594	0.32281728	0
21	1603	0.32294032	0
21	1612	0.32306336	0
21	1621	0.3231864	0
21	1966	0.36184256	0
21	1975	0.3619656	0
21	1984	0.36208864	0
21	1993	0.36221168	0
21	2002	0.36233472	0
21	2011	0.36245776	0
21	2020	0.3625808	0
21	2029	0.36270384	0
21	2038	0.36282688	0
21	2047	0.36294992	0
21	2056	0.36307296	0
21	2065	0.363196	0
21	2074	0.36331904	0
21	2083	0.36344208	0
21	2428	0.40209824	0
21	2437	0.40222128	0
21	2446	0.40234432	0
21	2455	0.40246736	0
21	2464	0.4025904	0
21	2473	0.40271344	0
21	2482	0.40283648	0
21	2491	0.40295952	0
21	2500	0.40308256	0
21	2509	0.4032056	0
21	2518	0.40332864	0
21	2527	0.40345168	0
21	2536	0.40357472	0
21	2545	0.40369776	0
21	2890	0.44235392	0
21	2899	0.44247696	0
21	2908	0.4426	0
21	2917	0.44272304	0
21	2926	0.44284608	0
21	2935	0.44296912	0
21	2944	0.44309216	0
21	2953	0.4432152	0
21	2962	0.44333824	0
21	2971	0.44346128	0
21	2980	0.44358432	0
21	2989	0.44370736	0
21	2998	0.4438304	0
21	3007	0.44395344	0
21	3352	0.4826096	0
21	3361	0.48273264	0
21	3370	0.48285568	0
21	3379	0.48297872	0
21	3388	0.48310176	0
21	3397	0.4832248	0
21	3406	0.48334784	0
21	3415	0.48347088	0
21	3424	0.48359392	0
21	3433	0.48371696	0
21	3442	0.48384	0
21	3451	0.48396304	0
21	3460	0.48408608	0
21	3469	0.48420912	0
21	3814	0.52286528	0
21	3823	0.52298832	0
21	3832	0.52311136	0
21	3841	0.5232344	0
21	3850	0.52335744	0
21	3859	0.52348048	0
21	3868	0.52360352	0
21	3877	0.52372656	0
21	3886	0.5238496	0
21	3895	0.52397264	0
21	3904	0.52409568	0
21	3913	0.52421872	0
21	3922	0.52434176	0
21	3931	0.5244648	0
21	4276	0.56312096	0
21	4285	0.563244	0
21	4294	0.56336704	0
21	4303	0.56349008	0
21	4312	0.56361312	0
21	4321	0.56373616	0
21	4330	0.5638592	0
21	4339	0.56398224	0
21	4348	0.56410528	0
21	4357	0.56422832	0
21	4366	0.56435136	0
21	4375	0.5644744	0
21	4384	0.56459744	0
21	4393	0.56472048	0
21	4738	0.60337664	0
21	4747	0.60349968	0
21	4756	0.60362272	0
21	4765	0.60374576	0
21	4774	0.6038688	0
21	4783	0.60399184	0
21	4792	0.60411488	0
21	4801	0.60423792	0
21	4810	0.60436096	0
21	4819	0.604484	0
21	4828	0.60460704	0
21	4837	0.60473008	0
21	4846	0.60485312	0
21	4855	0.60497616	0
21	5200	0.64363232	0
21	5209	0.64375536	0
21	5218	0.6438784	0
21	5227	0.64400144	0
21	5236	0.64412448	0
21	5245	0.64424752	0
21	5254	0.64437056	0
21	5263	0.6444936	0
21	5272	0.64461664	0
21	5281	0.64473968	0
21	5290	0.64486272	0
21	5299	0.64498576	0
21	5308	0.6451088	0
21	5317	0.64523184	0
21	5662	0.683888	0
21	5671	0.68401104	0
21	5680	0.68413408	0
21	5689	0.68425712	0
21	5698	0.68438016	0
21	5707	0.6845032	0
21	5716	0.68462624	0
21	5725	0.68474928	0
21	5734	0.68487232	0
21	5743	0.68499536	0
21	5752	0.6851184	0
21	5761	0.68524144	0
21	5770	0.68536448	0
21	5779	0.68548752	0
22	4	0	20440
22	107	0.08004608	35449
22	107	0.08004608	35449
22	113	0.08004608	35449
22	170	0.12030848	35449
22	170	0.12030848	35449
22	232	0.16056416	35449
22	232	0.16056416	35449
22	244	0.1606872	35449
22	244	0.1606872	35449
22	356	0.20081984	35449
22	356	0.20081984	35449
22	368	0.20094288	35449
22	368	0.20094288	35449
22	380	0.20106592	35449
22	380	0.20106592	35449
22	392	0.20118896	35449
22	392	0.20118896	35449
22	604	0.24107552	35449
22	604	0.24107552	35449
22	616	0.24119856	35449
22	616	0.24119856	35449
22	628	0.2413216	35449
22	628	0.2413216	35449
22	640	0.24144464	35449
22	640	0.24144464	35449
22	652	0.24156768	35449
22	652	0.24156768	35449
22	664	0.24169072	35449
22	664	0.24169072	35449
22	676	0.24181376	35449
22	685	0.2419368	35449
22	1042	0.2813312	35449
22	1051	0.28145424	35449
22	1060	0.28157728	35449
22	1069	0.28170032	35449
22	1078	0.28182336	35449
22	1087	0.2819464	35449
22	1096	0.28206944	35449
22	1105	0.28219248	35449
22	1114	0.28231552	35449
22	1123	0.28243856	35449
22	1132	0.2825616	35449
22	1141	0.28268464	35449
22	1150	0.28280768	35449
22	1159	0.28293072	35449
22	1504	0.32158688	35449
22	1513	0.32170992	35449
22	1522	0.32183296	35449
22	1531	0.321956	35449
22	1540	0.32207904	35449
22	1549	0.32220208	35449
22	1558	0.32232512	35449
22	1567	0.32244816	35449
22	1576	0.3225712	35449
22	1585	0.32269424	35449
22	1594	0.32281728	35449
22	1603	0.32294032	35449
22	1612	0.32306336	35449
22	1621	0.3231864	35449
22	1966	0.36184256	35449
22	1975	0.3619656	35449
22	1984	0.36208864	35449
22	1993	0.36221168	35449
22	2002	0.36233472	35449
22	2011	0.36245776	35449
22	2020	0.3625808	35449
22	2029	0.36270384	35449
22	2038	0.36282688	35449
22	2047	0.36294992	35449
22	2056	0.36307296	35449
22	2065	0.363196	35449
22	2074	0.36331904	35449
22	2083	0.36344208	35449
22	2428	0.40209824	35449
22	2437	0.40222128	35449
22	2446	0.40234432	35449
22	2455	0.40246736	35449
22	2464	0.4025904	35449
22	2473	0.40271344	35449
22	2482	0.40283648	35449
22	2491	0.40295952	35449
22	2500	0.40308256	35449
22	2509	0.4032056	35449
22	2518	0.40332864	35449
22	2527	0.40345168	35449
22	2536	0.40357472	35449
22	2545	0.40369776	35449
22	2890	0.44235392	35449
22	2899	0.44247696	35449
22	2908	0.4426	35449
22	2917	0.44272304	35449
22	2926	0.44284608	35449
22	2935	0.44296912	35449
22	2944	0.44309216	35449
22	2953	0.4432152	35449
22	2962	0.44333824	35449
22	2971	0.44346128	35449
22	2980	0.44358432	35449
22	2989	0.44370736	35449
22	2998	0.4438304	35449
22	3007	0.44395344	35449
22	3352	0.4826096	35449
22	3361	0.48273264	35449
22	3370	0.48285568	35449
22	3379	0.48297872	35449
22	3388	0.48310176	35449
22	3397	0.4832248	35449
22	3406	0.48334784	35449
22	3415	0.48347088	35449
22	3424	0.48359392	35449
22	3433	0.48371696	35449
22	3442	0.48384	35449
22	3451	0.48396304	35449
22	3460	0.48408608	35449
22	3469	0.48420912	35449
22	3814	0.52286528	35449
22	3823	0.52298832	35449
22	3832	0.52311136	35449
22	3841	0.5232344	35449
22	3850	0.52335744	35449
22	3859	0.52348048	35449
22	3868	0.52360352	35449
22	3877	0.52372656	35449
22	3886	0.5238496	35449
22	3895	0.52397264	35449
22	3904	0.52409568	35449
22	3913	0.52421872	35449
22	3922	0.52434176	35449
22	3931	0.5244648	35449
22	4276	0.56312096	35449
22	4285	0.563244	35449
22	4294	0.56336704	35449
22	4303	0.56349008	35449
22	4312	0.56361312	35449
22	4321	0.56373616	35449
22	4330	0.5638592	35449
22	4339	0.56398224	35449
22	4348	0.56410528	35449
22	4357	0.56422832	35449
22	4366	0.56435136	35449
22	4375	0.5644744	35449
22	4384	0.56459744	35449
22	4393	0.56472048	35449
22	4738	0.60337664	35449
22	4747	0.60349968	35449
22	4756	0.60362272	35449
22	4765	0.60374576	35449
22	4774	0.6038688	35449
22	4783	0.60399184	35449
22	4792	0.60411488	35449
22	4801	0.60423792	35449
22	4810	0.60436096	35449
22	4819	0.604484	35449
22	4828	0.60460704	35449
22	4837	0.60473008	35449
22	4846	0.60485312	35449
22	4855	0.60497616	35449
22	5200	0.64363232	35449
22	5209	0.64375536	35449
22	5218	0.6438784	35449
22	5227	0.64400144	35449
22	5236	0.64412448	35449
22	5245	0.64424752	35449
22	5254	0.64437056	35449
22	5263	0.6444936	35449
22	5272	0.64461664	35449
22	5281	0.64473968	35449
22	5290	0.64486272	35449
22	5299	0.64498576	35449
22	5308	0.6451088	35449
22	5317	0.64523184	35449
22	5662	0.683888	35449
22	5671	0.68401104	35449
22	5680	0.68413408	35449
22	5689	0.68425712	35449
22	5698	0.68438016	35449
22	5707	0.6845032	35449
22	5716	0.68462624	35449
22	5725	0.68474928	35449
22	5734	0.68487232	35449
22	5743	0.68499536	35449
22	5752	0.6851184	35449
22	5761	0.68524144	35449
22	5770	0.68536448	35449
22	5779	0.68548752	35449
23	4	0	20440
23	107	0.08004608	20440
23	113	0.08004608	20440
23	170	0.12030848	20440
23	170	0.12030848	20440
23	232	0.16056416	20440
23	232	0.16056416	20440
23	244	0.1606872	20440
23	244	0.1606872	20440
23	356	0.20081984	20440
23	356	0.20081984	20440
23	368	0.20094288	20440
23	368	0.20094288	20440
23	380	0.20106592	20440
23	380	0.20106592	20440
23	392	0.20118896	20440
23	392	0.20118896	20440
23	604	0.24107552	20440
23	604	0.24107552	20440
23	616	0.24119856	20440
23	616	0.24119856	20440
23	628	0.2413216	20440
23	628	0.2413216	20440
23	640	0.24144464	20440
23	640	0.24144464	20440
23	652	0.24156768	20440
23	652	0.24156768	20440
23	664	0.24169072	20440
23	664	0.24169072	20440
23	676	0.24181376	20440
23	685	0.2419368	20440
23	1042	0.2813312	20440
23	1051	0.28145424	20440
23	1060	0.28157728	20440
23	1069	0.28170032	20440
23	1078	0.28182336	20440
23	1087	0.2819464	20440
23	1096	0.28206944	20440
23	1105	0.28219248	20440
23	1114	0.28231552	20440
23	1123	0.28243856	20440
23	1132	0.2825616	20440
23	1141	0.28268464	20440
23	1150	0.28280768	20440
23	1159	0.28293072	20440
23	1504	0.32158688	20440
23	1513	0.32170992	20440
23	1522	0.32183296	20440
23	1531	0.321956	20440
23	1540	0.32207904	20440
23	1549	0.32220208	20440
23	1558	0.32232512	20440
23	1567	0.32244816	20440
23	1576	0.3225712	20440
23	1585	0.32269424	20440
23	1594	0.32281728	20440
23	1603	0.32294032	20440
23	1612	0.32306336	20440
23	1621	0.3231864	20440
23	1966	0.36184256	20440
23	1975	0.3619656	20440
23	1984	0.36208864	20440
23	1993	0.36221168	20440
23	2002	0.36233472	20440
23	2011	0.36245776	20440
23	2020	0.3625808	20440
23	2029	0.36270384	20440
23	2038	0.36282688	20440
23	2047	0.36294992	20440
23	2056	0.36307296	20440
23	2065	0.363196	20440
23	2074	0.36331904	20440
23	2083	0.36344208	20440
23	2428	0.40209824	20440
23	2437	0.40222128	20440
23	2446	0.40234432	20440
23	2455	0.40246736	20440
23	2464	0.4025904	20440
23	2473	0.40271344	20440
23	2482	0.40283648	20440
23	2491	0.40295952	20440
23	2500	0.40308256	20440
23	2509	0.4032056	20440
23	2518	0.40332864	20440
23	2527	0.40345168	20440
23	2536	0.40357472	20440
23	2545	0.40369776	20440
23	2890	0.44235392	20440
23	2899	0.44247696	20440
23	2908	0.4426	20440
23	2917	0.44272304	20440
23	2926	0.44284608	20440
23	2935	0.44296912	20440
23	2944	0.44309216	20440
23	2953	0.4432152	20440
23	2962	0.44333824	20440
23	2971	0.44346128	20440
23	2980	0.44358432	20440
23	2989	0.44370736	20440
23	2998	0.4438304	20440
23	3007	0.44395344	20440
23	3352	0.4826096	20440
23	3361	0.48273264	20440
23	3370	0.48285568	20440
23	3379	0.48297872	20440
23	3388	0.48310176	20440
23	3397	0.4832248	20440
23	3406	0.48334784	20440
23	3415	0.48347088	20440
23	3424	0.48359392	20440
23	3433	0.48371696	20440
23	3442	0.48384	20440
23	3451	0.48396304	20440
23	3460	0.48408608	20440
23	3469	0.48420912	20440
23	3814	0.52286528	20440
23	3823	0.52298832	20440
23	3832	0.52311136	20440
23	3841	0.5232344	20440
23	3850	0.52335744	20440
23	3859	0.52348048	20440
23	3868	0.52360352	20440
23	3877	0.52372656	20440
23	3886	0.5238496	20440
23	3895	0.52397264	20440
23	3904	0.52409568	20440
23	3913	0.52421872	20440
23	3922	0.52434176	20440
23	3931	0.5244648	20440
23	4276	0.56312096	20440
23	4285	0.563244	20440
23	4294	0.56336704	20440
23	4303	0.56349008	20440
23	4312	0.56361312	20440
23	4321	0.56373616	20440
23	4330	0.5638592	20440
23	4339	0.56398224	20440
23	4348	0.56410528	20440
23	4357	0.56422832	20440
23	4366	0.56435136	20440
23	4375	0.5644744	20440
23	4384	0.56459744	20440
23	4393	0.56472048	20440
23	4738	0.60337664	20440
23	4747	0.60349968	20440
23	4756	0.60362272	20440
23	4765	0.60374576	20440
23	4774	0.6038688	20440
23	4783	0.60399184	20440
23	4792	0.60411488	20440
23	4801	0.60423792	20440
23	4810	0.60436096	20440
23	4819	0.604484	20440
23	4828	0.60460704	20440
23	4837	0.60473008	20440
23	4846	0.60485312	20440
23	4855	0.60497616	20440
23	5200	0.64363232	20440
23	5209	0.64375536	20440
23	5218	0.6438784	20440
23	5227	0.64400144	20440
23	5236	0.64412448	20440
23	5245	0.64424752	20440
23	5254	0.64437056	20440
23	5263	0.6444936	20440
23	5272	0.64461664	20440
23	5281	0.64473968	20440
23	5290	0.64486272	20440
23	5299	0.64498576	20440
23	5308	0.6451088	20440
23	5317	0.64523184	20440
23	5662	0.683888	20440
23	5671	0.68401104	20440
23	5680	0.68413408	20440
23	5689	0.68425712	20440
23	5698	0.68438016	20440
23	5707	0.6845032	20440
23	5716	0.68462624	20440
23	5725	0.68474928	20440
23	5734	0.68487232	20440
23	5743	0.68499536	20440
23	5752	0.6851184	20440
23	5761	0.68524144	20440
23	5770	0.68536448	20440
23	5779	0.68548752	20440
24	4	0	0
24	107	0.08004608	15009
24	113	0.08004608	15009
24	170	0.12030848	15009
24	170	0.12030848	15009
24	232	0.16056416	15009
24	232	0.16056416	15009
24	244	0.1606872	15009
24	244	0.1606872	15009
24	356	0.20081984	15009
24	356	0.20081984	15009
24	368	0.20094288	15009
24	368	0.20094288	15009
24	380	0.20106592	15009
24	380	0.20106592	15009
24	392	0.20118896	15009
24	392	0.20118896	15009
24	604	0.24107552	15009
24	604	0.24107552	15009
24	616	0.24119856	15009
24	616	0.24119856	15009
24	628	0.2413216	15009
24	628	0.2413216	15009
24	640	0.24144464	15009
24	640	0.24144464	15009
24	652	0.24156768	15009
24	652	0.24156768	15009
24	664	0.24169072	15009
24	664	0.24169072	15009
24	676	0.24181376	15009
24	685	0.2419368	15009
24	1042	0.2813312	15009
24	1051	0.28145424	15009
24	1060	0.28157728	15009
24	1069	0.28170032	15009
24	1078	0.28182336	15009
24	1087	0.2819464	15009
24	1096	0.28206944	15009
24	1105	0.28219248	15009
24	1114	0.28231552	15009
24	1123	0.28243856	15009
24	1132	0.2825616	15009
24	1141	0.28268464	15009
24	1150	0.28280768	15009
24	1159	0.28293072	15009
24	1504	0.32158688	15009
24	1513	0.32170992	15009
24	1522	0.32183296	15009
24	1531	0.321956	15009
24	1540	0.32207904	15009
24	1549	0.32220208	15009
24	1558	0.32232512	15009
24	1567	0.32244816	15009
24	1576	0.3225712	15009
24	1585	0.32269424	15009
24	1594	0.32281728	15009
24	1603	0.32294032	15009
24	1612	0.32306336	15009
24	1621	0.3231864	15009
24	1966	0.36184256	15009
24	1975	0.3619656	15009
24	1984	0.36208864	15009
24	1993	0.36221168	15009
24	2002	0.36233472	15009
24	2011	0.36245776	15009
24	2020	0.3625808	15009
24	2029	0.36270384	15009
24	2038	0.36282688	15009
24	2047	0.36294992	15009
24	2056	0.36307296	15009
24	2065	0.363196	15009
24	2074	0.36331904	15009
24	2083	0.36344208	15009
24	2428	0.40209824	15009
24	2437	0.40222128	15009
24	2446	0.40234432	15009
24	2455	0.40246736	15009
24	2464	0.4025904	15009
24	2473	0.40271344	15009
24	2482	0.40283648	15009
24	2491	0.40295952	15009
24	2500	0.40308256	15009
24	2509	0.4032056	15009
24	2518	0.40332864	15009
24	2527	0.40345168	15009
24	2536	0.40357472	15009
24	2545	0.40369776	15009
24	2890	0.44235392	15009
24	2899	0.44247696	15009
24	2908	0.4426	15009
24	2917	0.44272304	15009
24	2926	0.44284608	15009
24	2935	0.44296912	15009
24	2944	0.44309216	15009
24	2953	0.4432152	15009
24	2962	0.44333824	15009
24	2971	0.44346128	15009
24	2980	0.44358432	15009
24	2989	0.44370736	15009
24	2998	0.4438304	15009
24	3007	0.44395344	15009
24	3352	0.4826096	15009
24	3361	0.48273264	15009
24	3370	0.48285568	15009
24	3379	0.48297872	15009
24	3388	0.48310176	15009
24	3397	0.4832248	15009
24	3406	0.48334784	15009
24	3415	0.48347088	15009
24	3424	0.48359392	15009
24	3433	0.48371696	15009
24	3442	0.48384	15009
24	3451	0.48396304	15009
24	3460	0.48408608	15009
24	3469	0.48420912	15009
24	3814	0.52286528	15009
24	3823	0.52298832	15009
24	3832	0.52311136	15009
24	3841	0.5232344	15009
24	3850	0.52335744	15009
24	3859	0.52348048	15009
24	3868	0.52360352	15009
24	3877	0.52372656	15009
24	3886	0.5238496	15009
24	3895	0.52397264	15009
24	3904	0.52409568	15009
24	3913	0.52421872	15009
24	3922	0.52434176	15009
24	3931	0.5244648	15009
24	4276	0.56312096	15009
24	4285	0.563244	15009
24	4294	0.56336704	15009
24	4303	0.56349008	15009
24	4312	0.56361312	15009
24	4321	0.56373616	15009
24	4330	0.5638592	15009
24	4339	0.56398224	15009
24	4348	0.56410528	15009
24	4357	0.56422832	15009
24	4366	0.56435136	15009
24	4375	0.5644744	15009
24	4384	0.56459744	15009
24	4393	0.56472048	15009
24	4738	0.60337664	15009
24	4747	0.60349968	15009
24	4756	0.60362272	15009
24	4765	0.60374576	15009
24	4774	0.6038688	15009
24	4783	0.60399184	15009
24	4792	0.60411488	15009
24	4801	0.60423792	15009
24	4810	0.60436096	15009
24	4819	0.604484	15009
24	4828	0.60460704	15009
24	4837	0.60473008	15009
24	4846	0.60485312	15009
24	4855	0.60497616	15009
24	5200	0.64363232	15009
24	5209	0.64375536	15009
24	5218	0.6438784	15009
24	5227	0.64400144	15009
24	5236	0.64412448	15009
24	5245	0.64424752	15009
24	5254	0.64437056	15009
24	5263	0.6444936	15009
24	5272	0.64461664	15009
24	5281	0.64473968	15009
24	5290	0.64486272	15009
24	5299	0.64498576	15009
24	5308	0.6451088	15009
24	5317	0.64523184	15009
24	5662	0.683888	15009
24	5671	0.68401104	15009
24	5680	0.68413408	15009
24	5689	0.68425712	15009
24	5698	0.68438016	15009
24	5707	0.6845032	15009
24	5716	0.68462624	15009
24	5725	0.68474928	15009
24	5734	0.68487232	15009
24	5743	0.68499536	15009
24	5752	0.6851184	15009
24	5761	0.68524144	15009
24	5770	0.68536448	15009
24	5779	0.68548752	15009
29	6	0	28
30	7	0	28
31	8	0	28
31	36	0.02001152	44
31	110	0.08004608	40
31	117	0.08004608	1500
31	173	0.12030848	1500
31	174	0.12030848	1500
31	235	0.16056416	1500
31	236	0.16056416	1500
31	247	0.1606872	1500
31	248	0.1606872	1500
31	359	0.20081984	1500
31	360	0.20081984	1500
31	371	0.20094288	1500
31	372	0.20094288	1500
31	383	0.20106592	1500
31	384	0.20106592	1500
31	395	0.20118896	1500
31	396	0.20118896	1500
31	607	0.24107552	1500
31	608	0.24107552	1500
31	619	0.24119856	1500
31	620	0.24119856	1500
31	631	0.2413216	1500
31	632	0.2413216	1500
31	643	0.24144464	1500
31	644	0.24144464	1500
31	655	0.24156768	1500
31	656	0.24156768	1500
31	667	0.24169072	1500
31	668	0.24169072	1500
31	678	0.24181376	1500
31	687	0.2419368	1500
31	1044	0.2813312	1500
31	1053	0.28145424	1500
[...]
120	1522	0.32183296	48180
120	1531	0.321956	49640
120	1540	0.32207904	51100
120	1549	0.32220208	52560
120	1558	0.32232512	54020
120	1567	0.32244816	55480
120	1576	0.3225712	56940
120	1585	0.32269424	58400
120	1594	0.32281728	59860
120	1603	0.32294032	61320
120	1612	0.32306336	62780
120	1621	0.3231864	64240
120	1966	0.36184256	65700
120	1975	0.3619656	67160
120	1984	0.36208864	68620
120	1993	0.36221168	70080
120	2002	0.36233472	71540
120	2011	0.36245776	73000
120	2020	0.3625808	74460
120	2029	0.36270384	75920
120	2038	0.36282688	77380
120	2047	0.36294992	78840
120	2056	0.36307296	80300
120	2065	0.363196	81760
120	2074	0.36331904	83220
120	2083	0.36344208	84680
120	2428	0.40209824	86140
120	2437	0.40222128	87600
120	2446	0.40234432	89060
120	2455	0.40246736	90520
120	2464	0.4025904	91980
120	2473	0.40271344	93440
120	2482	0.40283648	94900
120	2491	0.40295952	96360
120	2500	0.40308256	97820
120	2509	0.4032056	99280
120	2518	0.40332864	100740
120	2527	0.40345168	102200
120	2536	0.40357472	103660
120	2545	0.40369776	105120
120	2890	0.44235392	106580
120	2899	0.44247696	108040
120	2908	0.4426	109500
120	2917	0.44272304	110960
120	2926	0.44284608	112420
120	2935	0.44296912	113880
120	2944	0.44309216	115340
120	2953	0.4432152	116800
120	2962	0.44333824	118260
120	2971	0.44346128	119720
120	2980	0.44358432	121180
120	2989	0.44370736	122640
120	2998	0.4438304	124100
120	3007	0.44395344	125560
120	3352	0.4826096	127020
120	3361	0.48273264	128480
120	3370	0.48285568	129940
120	3379	0.48297872	131400
120	3388	0.48310176	132860
120	3397	0.4832248	134320
120	3406	0.48334784	135780
120	3415	0.48347088	137240
120	3424	0.48359392	138700
120	3433	0.48371696	140160
120	3442	0.48384	141620
120	3451	0.48396304	143080
120	3460	0.48408608	144540
120	3469	0.48420912	146000
120	3814	0.52286528	147460
120	3823	0.52298832	148920
120	3832	0.52311136	150380
120	3841	0.5232344	151840
120	3850	0.52335744	153300
120	3859	0.52348048	154760
120	3868	0.52360352	156220
120	3877	0.52372656	157680
120	3886	0.5238496	159140
120	3895	0.52397264	160600
120	3904	0.52409568	162060
120	3913	0.52421872	163520
120	3922	0.52434176	164980
120	3931	0.5244648	166440
120	4276	0.56312096	167900
120	4285	0.563244	169360
120	4294	0.56336704	170820
120	4303	0.56349008	172280
120	4312	0.56361312	173740
120	4321	0.56373616	175200
120	4330	0.5638592	176660
120	4339	0.56398224	178120
120	4348	0.56410528	179580
120	4357	0.56422832	181040
120	4366	0.56435136	182500
120	4375	0.5644744	183960
120	4384	0.56459744	185420
120	4393	0.56472048	186880
120	4738	0.60337664	188340
120	4747	0.60349968	189800
120	4756	0.60362272	191260
120	4765	0.60374576	192720
120	4774	0.6038688	194180
120	4783	0.60399184	195640
120	4792	0.60411488	197100
120	4801	0.60423792	198560
120	4810	0.60436096	200020
120	4819	0.604484	201480
120	4828	0.60460704	202940
120	4837	0.60473008	204400
120	4846	0.60485312	205860
120	4855	0.60497616	207320
120	5200	0.64363232	208780
120	5209	0.64375536	210240
120	5218	0.6438784	211700
120	5227	0.64400144	213160
120	5236	0.64412448	214620
120	5245	0.64424752	216080
120	5254	0.64437056	217540
120	5263	0.6444936	219000
120	5272	0.64461664	220460
120	5281	0.64473968	221920
120	5290	0.64486272	223380
120	5299	0.64498576	224840
120	5308	0.6451088	226300
120	5317	0.64523184	227760
120	5662	0.683888	229220
120	5671	0.68401104	230680
120	5680	0.68413408	232140
120	5689	0.68425712	233600
120	5698	0.68438016	235060
120	5707	0.6845032	236520
120	5716	0.68462624	237980
120	5725	0.68474928	239440
120	5734	0.68487232	240900
120	5743	0.68499536	242360
120	5752	0.6851184	243820
120	5761	0.68524144	245280
120	5770	0.68536448	246740
120	5779	0.68548752	248200
121	170	0.12030848	2920
121	232	0.16056416	4380
121	244	0.1606872	5840
121	356	0.20081984	7300
121	368	0.20094288	8760
121	380	0.20106592	10220
121	392	0.20118896	11680
121	604	0.24107552	13140
121	616	0.24119856	14600
121	628	0.2413216	16060
121	640	0.24144464	17520
121	652	0.24156768	18980
121	664	0.24169072	20440
121	676	0.24181376	21900
121	685	0.2419368	23360
121	1042	0.2813312	24820
121	1051	0.28145424	26280
121	1060	0.28157728	27740
121	1069	0.28170032	29200
121	1078	0.28182336	30660
121	1087	0.2819464	32120
121	1096	0.28206944	33580
121	1105	0.28219248	35040
121	1114	0.28231552	36500
121	1123	0.28243856	37960
121	1132	0.2825616	39420
121	1141	0.28268464	40880
121	1150	0.28280768	42340
121	1159	0.28293072	43800
121	1504	0.32158688	45260
121	1513	0.32170992	46720
121	1522	0.32183296	48180
121	1531	0.321956	49640
121	1540	0.32207904	51100
121	1549	0.32220208	52560
121	1558	0.32232512	54020
121	1567	0.32244816	55480
121	1576	0.3225712	56940
121	1585	0.32269424	58400
121	1594	0.32281728	59860
121	1603	0.32294032	61320
121	1612	0.32306336	62780
121	1621	0.3231864	64240
121	1966	0.36184256	65700
121	1975	0.3619656	67160
121	1984	0.36208864	68620
121	1993	0.36221168	70080
121	2002	0.36233472	71540
121	2011	0.36245776	73000
121	2020	0.3625808	74460
121	2029	0.36270384	75920
121	2038	0.36282688	77380
121	2047	0.36294992	78840
121	2056	0.36307296	80300
121	2065	0.363196	81760
121	2074	0.36331904	83220
121	2083	0.36344208	84680
121	2428	0.40209824	86140
121	2437	0.40222128	87600
121	2446	0.40234432	89060
121	2455	0.40246736	90520
121	2464	0.4025904	91980
121	2473	0.40271344	93440
121	2482	0.40283648	94900
121	2491	0.40295952	96360
121	2500	0.40308256	97820
121	2509	0.4032056	99280
121	2518	0.40332864	100740
121	2527	0.40345168	102200
121	2536	0.40357472	103660
121	2545	0.40369776	105120
121	2890	0.44235392	106580
121	2899	0.44247696	108040
121	2908	0.4426	109500
121	2917	0.44272304	110960
121	2926	0.44284608	112420
121	2935	0.44296912	113880
121	2944	0.44309216	115340
121	2953	0.4432152	116800
121	2962	0.44333824	118260
121	2971	0.44346128	119720
121	2980	0.44358432	121180
121	2989	0.44370736	122640
121	2998	0.4438304	124100
121	3007	0.44395344	125560
121	3352	0.4826096	127020
121	3361	0.48273264	128480
121	3370	0.48285568	129940
121	3379	0.48297872	131400
121	3388	0.48310176	132860
121	3397	0.4832248	134320
121	3406	0.48334784	135780
121	3415	0.48347088	137240
121	3424	0.48359392	138700
121	3433	0.48371696	140160
121	3442	0.48384	141620
121	3451	0.48396304	143080
121	3460	0.48408608	144540
121	3469	0.48420912	146000
121	3814	0.52286528	147460
121	3823	0.52298832	148920
121	3832	0.52311136	150380
121	3841	0.5232344	151840
121	3850	0.52335744	153300
121	3859	0.52348048	154760
121	3868	0.52360352	156220
121	3877	0.52372656	157680
121	3886	0.5238496	159140
121	3895	0.52397264	160600
121	3904	0.52409568	162060
121	3913	0.52421872	163520
121	3922	0.52434176	164980
121	3931	0.5244648	166440
121	4276	0.56312096	167900
121	4285	0.563244	169360
121	4294	0.56336704	170820
121	4303	0.56349008	172280
121	4312	0.56361312	173740
121	4321	0.56373616	175200
121	4330	0.5638592	176660
121	4339	0.56398224	178120
121	4348	0.56410528	179580
121	4357	0.56422832	181040
121	4366	0.56435136	182500
121	4375	0.5644744	183960
121	4384	0.56459744	185420
121	4393	0.56472048	186880
121	4738	0.60337664	188340
121	4747	0.60349968	189800
121	4756	0.60362272	191260
121	4765	0.60374576	192720
121	4774	0.6038688	194180
121	4783	0.60399184	195640
121	4792	0.60411488	197100
121	4801	0.60423792	198560
121	4810	0.60436096	200020
121	4819	0.604484	201480
121	4828	0.60460704	202940
121	4837	0.60473008	204400
121	4846	0.60485312	205860
121	4855	0.60497616	207320
121	5200	0.64363232	208780
121	5209	0.64375536	210240
121	5218	0.6438784	211700
121	5227	0.64400144	213160
121	5236	0.64412448	214620
121	5245	0.64424752	216080
121	5254	0.64437056	217540
121	5263	0.6444936	219000
121	5272	0.64461664	220460
121	5281	0.64473968	221920
121	5290	0.64486272	223380
121	5299	0.64498576	224840
121	5308	0.6451088	226300
121	5317	0.64523184	227760
121	5662	0.683888	229220
121	5671	0.68401104	230680
121	5680	0.68413408	232140
121	5689	0.68425712	233600
121	5698	0.68438016	235060
121	5707	0.6845032	236520
121	5716	0.68462624	237980
121	5725	0.68474928	239440
121	5734	0.68487232	240900
121	5743	0.68499536	242360
121	5752	0.6851184	243820
121	5761	0.68524144	245280
121	5770	0.68536448	246740
121	5779	0.68548752	248200
122	170	0.12030848	4.29497e+09
122	232	0.16056416	4.29497e+09
122	244	0.1606872	4.29497e+09
122	356	0.20081984	4.29497e+09
122	368	0.20094288	4.29497e+09
122	380	0.20106592	4.29497e+09
122	392	0.20118896	4.29497e+09
122	604	0.24107552	4.29497e+09
122	616	0.24119856	4.29497e+09
122	628	0.2413216	4.29497e+09
122	640	0.24144464	4.29497e+09
122	652	0.24156768	4.29497e+09
122	664	0.24169072	4.29497e+09
122	676	0.24181376	4.29497e+09
122	685	0.2419368	4.29497e+09
122	1042	0.2813312	4.29497e+09
122	1051	0.28145424	4.29497e+09
122	1060	0.28157728	4.29497e+09
122	1069	0.28170032	4.29497e+09
122	1078	0.28182336	4.29497e+09
122	1087	0.2819464	4.29497e+09
122	1096	0.28206944	4.29497e+09
122	1105	0.28219248	4.29497e+09
122	1114	0.28231552	4.29497e+09
122	1123	0.28243856	4.29497e+09
122	1132	0.2825616	4.29497e+09
122	1141	0.28268464	4.29497e+09
122	1150	0.28280768	4.29497e+09
122	1159	0.28293072	4.29497e+09
122	1504	0.32158688	4.29497e+09
122	1513	0.32170992	4.29497e+09
122	1522	0.32183296	4.29497e+09
122	1531	0.321956	4.29497e+09
122	1540	0.32207904	4.29497e+09
122	1549	0.32220208	4.29497e+09
122	1558	0.32232512	4.29497e+09
122	1567	0.32244816	4.29497e+09
122	1576	0.3225712	4.29497e+09
122	1585	0.32269424	4.29497e+09
122	1594	0.32281728	4.29497e+09
122	1603	0.32294032	4.29497e+09
122	1612	0.32306336	4.29497e+09
122	1621	0.3231864	4.29497e+09
122	1966	0.36184256	4.29497e+09
122	1975	0.3619656	4.29497e+09
122	1984	0.36208864	4.29497e+09
122	1993	0.36221168	4.29497e+09
122	2002	0.36233472	4.29497e+09
122	2011	0.36245776	4.29497e+09
122	2020	0.3625808	4.29497e+09
122	2029	0.36270384	4.29497e+09
122	2038	0.36282688	4.29497e+09
122	2047	0.36294992	4.29497e+09
122	2056	0.36307296	4.29497e+09
122	2065	0.363196	4.29497e+09
122	2074	0.36331904	4.29497e+09
122	2083	0.36344208	4.29497e+09
122	2428	0.40209824	4.29497e+09
122	2437	0.40222128	4.29497e+09
122	2446	0.40234432	4.29497e+09
122	2455	0.40246736	4.29497e+09
122	2464	0.4025904	4.29497e+09
122	2473	0.40271344	4.29497e+09
122	2482	0.40283648	4.29497e+09
122	2491	0.40295952	4.29497e+09
122	2500	0.40308256	4.29497e+09
122	2509	0.4032056	4.29497e+09
122	2518	0.40332864	4.29497e+09
122	2527	0.40345168	4.29497e+09
122	2536	0.40357472	4.29497e+09
122	2545	0.40369776	4.29497e+09
122	2890	0.44235392	4.29497e+09
122	2899	0.44247696	4.29497e+09
122	2908	0.4426	4.29497e+09
122	2917	0.44272304	4.29497e+09
122	2926	0.44284608	4.29497e+09
122	2935	0.44296912	4.29497e+09
122	2944	0.44309216	4.29497e+09
122	2953	0.4432152	4.29497e+09
122	2962	0.44333824	4.29497e+09
122	2971	0.44346128	4.29497e+09
122	2980	0.44358432	4.29497e+09
122	2989	0.44370736	4.29497e+09
122	2998	0.4438304	4.29497e+09
122	3007	0.44395344	4.29497e+09
122	3352	0.4826096	4.29497e+09
122	3361	0.48273264	4.29497e+09
122	3370	0.48285568	4.29497e+09
122	3379	0.48297872	4.29497e+09
122	3388	0.48310176	4.29497e+09
122	3397	0.4832248	4.29497e+09
122	3406	0.48334784	4.29497e+09
122	3415	0.48347088	4.29497e+09
122	3424	0.48359392	4.29497e+09
122	3433	0.48371696	4.29497e+09
122	3442	0.48384	4.29497e+09
122	3451	0.48396304	4.29497e+09
122	3460	0.48408608	4.29497e+09
122	3469	0.48420912	4.29497e+09
122	3814	0.52286528	4.29497e+09
122	3823	0.52298832	4.29497e+09
122	3832	0.52311136	4.29497e+09
122	3841	0.5232344	4.29497e+09
122	3850	0.52335744	4.29497e+09
122	3859	0.52348048	4.29497e+09
122	3868	0.52360352	4.29497e+09
122	3877	0.52372656	4.29497e+09
122	3886	0.5238496	4.29497e+09
122	3895	0.52397264	4.29497e+09
122	3904	0.52409568	4.29497e+09
122	3913	0.52421872	4.29497e+09
122	3922	0.52434176	4.29497e+09
122	3931	0.5244648	4.29497e+09
122	4276	0.56312096	4.29497e+09
122	4285	0.563244	4.29497e+09
122	4294	0.56336704	4.29497e+09
122	4303	0.56349008	4.29497e+09
122	4312	0.56361312	4.29497e+09
122	4321	0.56373616	4.29497e+09
122	4330	0.5638592	4.29497e+09
122	4339	0.56398224	4.29497e+09
122	4348	0.56410528	4.29497e+09
122	4357	0.56422832	4.29497e+09
122	4366	0.56435136	4.29497e+09
122	4375	0.5644744	4.29497e+09
122	4384	0.56459744	4.29497e+09
122	4393	0.56472048	4.29497e+09
122	4738	0.60337664	4.29497e+09
122	4747	0.60349968	4.29497e+09
122	4756	0.60362272	4.29497e+09
122	4765	0.60374576	4.29497e+09
122	4774	0.6038688	4.29497e+09
122	4783	0.60399184	4.29497e+09
122	4792	0.60411488	4.29497e+09
122	4801	0.60423792	4.29497e+09
122	4810	0.60436096	4.29497e+09
122	4819	0.604484	4.29497e+09
122	4828	0.60460704	4.29497e+09
122	4837	0.60473008	4.29497e+09
122	4846	0.60485312	4.29497e+09
122	4855	0.60497616	4.29497e+09
122	5200	0.64363232	4.29497e+09
122	5209	0.64375536	4.29497e+09
122	5218	0.6438784	4.29497e+09
122	5227	0.64400144	4.29497e+09
122	5236	0.64412448	4.29497e+09
122	5245	0.64424752	4.29497e+09
122	5254	0.64437056	4.29497e+09
122	5263	0.6444936	4.29497e+09
122	5272	0.64461664	4.29497e+09
122	5281	0.64473968	4.29497e+09
122	5290	0.64486272	4.29497e+09
122	5299	0.64498576	4.29497e+09
122	5308	0.6451088	4.29497e+09
122	5317	0.64523184	4.29497e+09
122	5662	0.683888	4.29497e+09
122	5671	0.68401104	4.29497e+09
122	5680	0.68413408	4.29497e+09
122	5689	0.68425712	4.29497e+09
122	5698	0.68438016	4.29497e+09
122	5707	0.6845032	4.29497e+09
122	5716	0.68462624	4.29497e+09
122	5725	0.68474928	4.29497e+09
122	5734	0.68487232	4.29497e+09
122	5743	0.68499536	4.29497e+09
122	5752	0.6851184	4.29497e+09
122	5761	0.68524144	4.29497e+09
122	5770	0.68536448	4.29497e+09
122	5779	0.68548752	4.29497e+09
123	170	0.12030848	0
123	232	0.16056416	0
123	244	0.1606872	0
123	356	0.20081984	0
123	368	0.20094288	0
123	380	0.20106592	0
123	392	0.20118896	0
123	604	0.24107552	0
123	616	0.24119856	0
123	628	0.2413216	0
123	640	0.24144464	0
123	652	0.24156768	0
123	664	0.24169072	0
123	676	0.24181376	0
123	685	0.2419368	0
123	1042	0.2813312	0
123	1051	0.28145424	0
123	1060	0.28157728	0
123	1069	0.28170032	0
123	1078	0.28182336	0
123	1087	0.2819464	0
123	1096	0.28206944	0
123	1105	0.28219248	0
123	1114	0.28231552	0
123	1123	0.28243856	0
123	1132	0.2825616	0
123	1141	0.28268464	0
123	1150	0.28280768	0
123	1159	0.28293072	0
123	1504	0.32158688	0
123	1513	0.32170992	0
123	1522	0.32183296	0
123	1531	0.321956	0
123	1540	0.32207904	0
123	1549	0.32220208	0
123	1558	0.32232512	0
123	1567	0.32244816	0
123	1576	0.3225712	0
123	1585	0.32269424	0
123	1594	0.32281728	0
123	1603	0.32294032	0
123	1612	0.32306336	0
123	1621	0.3231864	0
123	1966	0.36184256	0
123	1975	0.3619656	0
123	1984	0.36208864	0
123	1993	0.36221168	0
123	2002	0.36233472	0
123	2011	0.36245776	0
123	2020	0.3625808	0
123	2029	0.36270384	0
123	2038	0.36282688	0
123	2047	0.36294992	0
123	2056	0.36307296	0
123	2065	0.363196	0
123	2074	0.36331904	0
123	2083	0.36344208	0
123	2428	0.40209824	0
123	2437	0.40222128	0
123	2446	0.40234432	0
123	2455	0.40246736	0
123	2464	0.4025904	0
123	2473	0.40271344	0
123	2482	0.40283648	0
123	2491	0.40295952	0
123	2500	0.40308256	0
123	2509	0.4032056	0
123	2518	0.40332864	0
123	2527	0.40345168	0
123	2536	0.40357472	0
123	2545	0.40369776	0
123	2890	0.44235392	0
123	2899	0.44247696	0
123	2908	0.4426	0
123	2917	0.44272304	0
123	2926	0.44284608	0
123	2935	0.44296912	0
123	2944	0.44309216	0
123	2953	0.4432152	0
123	2962	0.44333824	0
123	2971	0.44346128	0
123	2980	0.44358432	0
123	2989	0.44370736	0
123	2998	0.4438304	0
123	3007	0.44395344	0
123	3352	0.4826096	0
123	3361	0.48273264	0
123	3370	0.48285568	0
123	3379	0.48297872	0
123	3388	0.48310176	0
123	3397	0.4832248	0
123	3406	0.48334784	0
123	3415	0.48347088	0
123	3424	0.48359392	0
123	3433	0.48371696	0
123	3442	0.48384	0
123	3451	0.48396304	0
123	3460	0.48408608	0
123	3469	0.48420912	0
123	3814	0.52286528	0
123	3823	0.52298832	0
123	3832	0.52311136	0
123	3841	0.5232344	0
123	3850	0.52335744	0
123	3859	0.52348048	0
123	3868	0.52360352	0
123	3877	0.52372656	0
123	3886	0.5238496	0
123	3895	0.52397264	0
123	3904	0.52409568	0
123	3913	0.52421872	0
123	3922	0.52434176	0
123	3931	0.5244648	0
123	4276	0.56312096	0
123	4285	0.563244	0
123	4294	0.56336704	0
123	4303	0.56349008	0
123	4312	0.56361312	0
123	4321	0.56373616	0
123	4330	0.5638592	0
123	4339	0.56398224	0
123	4348	0.56410528	0
123	4357	0.56422832	0
123	4366	0.56435136	0
123	4375	0.5644744	0
123	4384	0.56459744	0
123	4393	0.56472048	0
123	4738	0.60337664	0
123	4747	0.60349968	0
123	4756	0.60362272	0
123	4765	0.60374576	0
123	4774	0.6038688	0
123	4783	0.60399184	0
123	4792	0.60411488	0
123	4801	0.60423792	0
123	4810	0.60436096	0
123	4819	0.604484	0
123	4828	0.60460704	0
123	4837	0.60473008	0
123	4846	0.60485312	0
123	4855	0.60497616	0
123	5200	0.64363232	0
123	5209	0.64375536	0
123	5218	0.6438784	0
123	5227	0.64400144	0
123	5236	0.64412448	0
123	5245	0.64424752	0
123	5254	0.64437056	0
123	5263	0.6444936	0
123	5272	0.64461664	0
123	5281	0.64473968	0
123	5290	0.64486272	0
123	5299	0.64498576	0
123	5308	0.6451088	0
123	5317	0.64523184	0
123	5662	0.683888	0
123	5671	0.68401104	0
123	5680	0.68413408	0
123	5689	0.68425712	0
123	5698	0.68438016	0
123	5707	0.6845032	0
123	5716	0.68462624	0
123	5725	0.68474928	0
123	5734	0.68487232	0
123	5743	0.68499536	0
123	5752	0.6851184	0
123	5761	0.68524144	0
123	5770	0.68536448	0
123	5779	0.68548752	0
124	175	0.1	134720
124	361	0.2	728640
124	1507	0.3	4.37184e+06
124	2431	0.4	3.40032e+06
124	3817	0.5	5.10048e+06
124	4741	0.6	3.40032e+06
125	175	0.1	134720
125	361	0.2	728640
125	1507	0.3	4.37184e+06
125	2431	0.4	3.40032e+06
125	3817	0.5	5.10048e+06
125	4741	0.6	3.40032e+06
126	185	0.1	139680
126	413	0.2	728640
126	1631	0.3	4.37184e+06
126	2555	0.4	3.40032e+06
126	3941	0.5	5.10048e+06
126	4865	0.6	3.40032e+06
127	185	0.1	139680
127	413	0.2	728640
127	1631	0.3	4.37184e+06
127	2555	0.4	3.40032e+06
127	3941	0.5	5.10048e+06
127	4865	0.6	3.40032e+06
vector 128 TcpVariants.router.eth[2].queue outgoingDataRate:vector ETV
attr interpolationmode linear
attr recordingmode vector
attr source throughput(packetPulled)
attr title "outgoing datarate"
attr unit bps
vector 129 TcpVariants.router.eth[2].queue incomingDataRate:vector ETV
attr interpolationmode linear
attr recordingmode vector
attr source throughput(packetPushStarted)
attr title "incoming datarate"
attr unit bps
vector 130 TcpVariants.trafficGen.eth[0].queue outgoingDataRate:vector ETV
attr interpolationmode linear
attr recordingmode vector
attr source throughput(packetPulled)
attr title "outgoing datarate"
attr unit bps
vector 131 TcpVariants.trafficGen.eth[0].queue incomingDataRate:vector ETV
attr interpolationmode linear
attr recordingmode vector
attr source throughput(packetPushStarted)
attr title "incoming datarate"
attr unit bps
111	5784	0.688450276143	146885
112	5784	0.688450276143	146885
113	5784	0.688450276143	146885
114	5784	0.688450276143	146885
124	5784	0.688450276143	5.76649e+06
125	5784	0.688450276143	5.76649e+06
126	5784	0.688450276143	3.84433e+06
127	5784	0.688450276143	3.84433e+06
128	5784	0.1	8320
128	5784	0.2	0
128	5784	0.3	0
128	5784	0.4	0
128	5784	0.5	0
128	5784	0.6	0
128	5784	0.688450276143	0
129	5784	0.1	8320
129	5784	0.2	0
129	5784	0.3	0
129	5784	0.4	0
129	5784	0.5	0
129	5784	0.6	0
129	5784	0.688450276143	0
130	5784	0.1	8640
130	5784	0.2	0
130	5784	0.3	0
130	5784	0.4	0
130	5784	0.5	0
130	5784	0.6	0
130	5784	0.688450276143	0
131	5784	0.1	8640
131	5784	0.2	0
131	5784	0.3	0
131	5784	0.4	0
131	5784	0.5	0
131	5784	0.6	0
131	5784	0.688450276143	0

